MODEL 1
REMARK VINA RESULT:      -7.3      0.000      0.000
REMARK  11 active torsions:
REMARK  status: ('A' for Active; 'I' for Inactive)
REMARK    1  A    between atoms: C4_1  and  O4_9 
REMARK    2  A    between atoms: O6_3  and  C6_15 
REMARK    3  A    between atoms: C1_4  and  O1_21 
REMARK    4  A    between atoms: O2_6  and  C2_13 
REMARK       I    between atoms: C7_7  and  N2_10 
REMARK    5  A    between atoms: O3_8  and  C1_12 
REMARK    6  A    between atoms: O3_8  and  C3_16 
REMARK    7  A    between atoms: N2_10  and  C2_20 
REMARK    8  A    between atoms: C5_11  and  C6_15 
REMARK    9  A    between atoms: C5_18  and  C6_25 
REMARK   10  A    between atoms: O3_22  and  C3_24 
REMARK   11  A    between atoms: O6A_23  and  C6_25 
ROOT
ATOM      1  C4  NAG d 902       8.292  -8.417  31.161  0.00  0.00     0.180 C 
ATOM      2  O5  NAG d 902      10.286  -9.880  31.043  0.00  0.00    -0.349 OA
ATOM      3  C1  NAG d 902       9.452 -11.122  31.047  0.00  0.00     0.282 C 
ATOM      4  C5  NAG d 902       9.588  -8.696  30.422  0.00  0.00     0.179 C 
ATOM      5  C3  NAG d 902       7.411  -9.694  31.143  0.00  0.00     0.183 C 
ATOM      6  C2  NAG d 902       8.149 -10.860  31.813  0.00  0.00     0.171 C 
ENDROOT
BRANCH   5   7
ATOM      7  O3  NAG d 902       6.167  -9.477  31.853  0.00  0.00    -0.348 OA
BRANCH   7   8
ATOM      8  C1  GCD d 901       4.936  -9.852  31.268  0.00  0.00     0.298 C 
ATOM      9  C2  GCD d 901       5.058 -10.094  29.796  0.00  0.00     0.206 C 
ATOM     10  C3  GCD d 901       3.622 -10.507  29.314  0.00  0.00     0.177 C 
ATOM     11  C4  GCD d 901       2.776 -11.405  30.239  0.00  0.00     0.051 C 
ATOM     12  C5  GCD d 901       3.283 -11.793  31.428  0.00  0.00     0.144 C 
ATOM     13  O5  GCD d 901       4.560 -11.163  31.916  0.00  0.00    -0.311 OA
BRANCH   9  14
ATOM     14  O2  GCD d 901       5.517  -8.899  29.086  0.00  0.00    -0.388 OA
ATOM     15  H   GCD d 901       5.157  -8.108  29.518  0.00  0.00     0.210 HD
ENDBRANCH   9  14
BRANCH  10  16
ATOM     16  O3  GCD d 901       3.704 -10.779  27.927  0.00  0.00    -0.389 OA
ATOM     17  H   GCD d 901       3.776 -11.736  27.790  0.00  0.00     0.210 HD
ENDBRANCH  10  16
BRANCH  12  18
ATOM     18  C6  GCD d 901       2.552 -12.672  32.412  0.00  0.00     0.200 C 
ATOM     19  O6B GCD d 901       2.832 -12.346  33.623  0.00  0.00    -0.645 OA
BRANCH  18  20
ATOM     20  O6A GCD d 901       2.004 -13.738  31.937  0.00  0.00    -0.771 OA
ATOM     21  H   GCD d 901       2.528 -14.379  31.499  0.00  0.00     0.167 HD
ENDBRANCH  18  20
ENDBRANCH  12  18
ENDBRANCH   7   8
ENDBRANCH   5   7
BRANCH   1  22
ATOM     22  O4  NAG d 902       7.624  -7.292  30.542  0.00  0.00    -0.390 OA
ATOM     23  H   NAG d 902       7.220  -7.576  29.707  0.00  0.00     0.210 HD
ENDBRANCH   1  22
BRANCH   6  24
ATOM     24  N2  NAG d 902       7.226 -12.067  31.835  0.00  0.00    -0.349 N 
ATOM     25  C7  NAG d 902       7.265 -12.922  32.983  0.00  0.00     0.214 C 
ATOM     26  O7  NAG d 902       8.028 -12.751  33.974  0.00  0.00    -0.274 OA
ATOM     27  C8  NAG d 902       6.251 -14.046  32.908  0.00  0.00     0.117 C 
ATOM     28  H   NAG d 902       6.620 -12.255  31.083  0.00  0.00     0.163 HD
ENDBRANCH   6  24
BRANCH   4  29
ATOM     29  C6  NAG d 902      10.490  -7.462  30.441  0.00  0.00     0.198 C 
BRANCH  29  30
ATOM     30  O6  NAG d 902      11.355  -7.383  31.606  0.00  0.00    -0.398 OA
ATOM     31  H   NAG d 902      11.515  -6.452  31.828  0.00  0.00     0.209 HD
ENDBRANCH  29  30
ENDBRANCH   4  29
BRANCH   3  32
ATOM     32  O1  NAG d 902      10.150 -12.214  31.635  0.00  0.00    -0.369 OA
ATOM     33  H   NAG d 902      10.100 -12.146  32.602  0.00  0.00     0.212 HD
ENDBRANCH   3  32
TORSDOF 11
ENDMDL
MODEL 2
REMARK VINA RESULT:      -7.2      1.512      2.692
REMARK  11 active torsions:
REMARK  status: ('A' for Active; 'I' for Inactive)
REMARK    1  A    between atoms: C4_1  and  O4_9 
REMARK    2  A    between atoms: O6_3  and  C6_15 
REMARK    3  A    between atoms: C1_4  and  O1_21 
REMARK    4  A    between atoms: O2_6  and  C2_13 
REMARK       I    between atoms: C7_7  and  N2_10 
REMARK    5  A    between atoms: O3_8  and  C1_12 
REMARK    6  A    between atoms: O3_8  and  C3_16 
REMARK    7  A    between atoms: N2_10  and  C2_20 
REMARK    8  A    between atoms: C5_11  and  C6_15 
REMARK    9  A    between atoms: C5_18  and  C6_25 
REMARK   10  A    between atoms: O3_22  and  C3_24 
REMARK   11  A    between atoms: O6A_23  and  C6_25 
ROOT
ATOM      1  C4  NAG d 902       7.815  -8.742  31.014  0.00  0.00     0.180 C 
ATOM      2  O5  NAG d 902      10.044  -9.820  31.048  0.00  0.00    -0.349 OA
ATOM      3  C1  NAG d 902       9.450 -11.193  31.004  0.00  0.00     0.282 C 
ATOM      4  C5  NAG d 902       9.190  -8.778  30.370  0.00  0.00     0.179 C 
ATOM      5  C3  NAG d 902       7.183 -10.157  30.944  0.00  0.00     0.183 C 
ATOM      6  C2  NAG d 902       8.070 -11.173  31.674  0.00  0.00     0.171 C 
ENDROOT
BRANCH   5   7
ATOM      7  O3  NAG d 902       5.873 -10.172  31.563  0.00  0.00    -0.348 OA
BRANCH   7   8
ATOM      8  C1  GCD d 901       4.767 -10.725  30.880  0.00  0.00     0.298 C 
ATOM      9  C2  GCD d 901       3.527  -9.903  31.050  0.00  0.00     0.206 C 
ATOM     10  C3  GCD d 901       2.413 -10.643  30.229  0.00  0.00     0.177 C 
ATOM     11  C4  GCD d 901       2.807 -11.287  28.885  0.00  0.00     0.051 C 
ATOM     12  C5  GCD d 901       4.087 -11.210  28.466  0.00  0.00     0.144 C 
ATOM     13  O5  GCD d 901       5.136 -10.696  29.417  0.00  0.00    -0.311 OA
BRANCH   9  14
ATOM     14  O2  GCD d 901       3.142  -9.788  32.458  0.00  0.00    -0.388 OA
ATOM     15  H   GCD d 901       3.295  -8.880  32.762  0.00  0.00     0.210 HD
ENDBRANCH   9  14
BRANCH  10  16
ATOM     16  O3  GCD d 901       1.229  -9.874  30.337  0.00  0.00    -0.389 OA
ATOM     17  H   GCD d 901       1.293  -9.099  29.757  0.00  0.00     0.210 HD
ENDBRANCH  10  16
BRANCH  12  18
ATOM     18  C6  GCD d 901       4.590 -11.797  27.171  0.00  0.00     0.200 C 
ATOM     19  O6B GCD d 901       3.636 -11.934  26.321  0.00  0.00    -0.645 OA
BRANCH  18  20
ATOM     20  O6A GCD d 901       5.774 -12.307  27.190  0.00  0.00    -0.771 OA
ATOM     21  H   GCD d 901       6.082 -12.806  26.459  0.00  0.00     0.167 HD
ENDBRANCH  18  20
ENDBRANCH  12  18
ENDBRANCH   7   8
ENDBRANCH   5   7
BRANCH   1  22
ATOM     22  O4  NAG d 902       7.000  -7.754  30.340  0.00  0.00    -0.390 OA
ATOM     23  H   NAG d 902       6.860  -8.024  29.420  0.00  0.00     0.210 HD
ENDBRANCH   1  22
BRANCH   6  24
ATOM     24  N2  NAG d 902       7.382 -12.527  31.642  0.00  0.00    -0.349 N 
ATOM     25  C7  NAG d 902       6.887 -13.060  32.875  0.00  0.00     0.214 C 
ATOM     26  O7  NAG d 902       7.000 -12.489  33.994  0.00  0.00    -0.274 OA
ATOM     27  C8  NAG d 902       6.165 -14.381  32.693  0.00  0.00     0.117 C 
ATOM     28  H   NAG d 902       7.278 -13.023  30.797  0.00  0.00     0.163 HD
ENDBRANCH   6  24
BRANCH   4  29
ATOM     29  C6  NAG d 902       9.850  -7.402  30.442  0.00  0.00     0.198 C 
BRANCH  29  30
ATOM     30  O6  NAG d 902      11.255  -7.403  30.069  0.00  0.00    -0.398 OA
ATOM     31  H   NAG d 902      11.565  -8.318  29.982  0.00  0.00     0.209 HD
ENDBRANCH  29  30
ENDBRANCH   4  29
BRANCH   3  32
ATOM     32  O1  NAG d 902      10.290 -12.143  31.648  0.00  0.00    -0.369 OA
ATOM     33  H   NAG d 902      10.425 -12.905  31.062  0.00  0.00     0.212 HD
ENDBRANCH   3  32
TORSDOF 11
ENDMDL
MODEL 3
REMARK VINA RESULT:      -7.1      3.621      5.893
REMARK  11 active torsions:
REMARK  status: ('A' for Active; 'I' for Inactive)
REMARK    1  A    between atoms: C4_1  and  O4_9 
REMARK    2  A    between atoms: O6_3  and  C6_15 
REMARK    3  A    between atoms: C1_4  and  O1_21 
REMARK    4  A    between atoms: O2_6  and  C2_13 
REMARK       I    between atoms: C7_7  and  N2_10 
REMARK    5  A    between atoms: O3_8  and  C1_12 
REMARK    6  A    between atoms: O3_8  and  C3_16 
REMARK    7  A    between atoms: N2_10  and  C2_20 
REMARK    8  A    between atoms: C5_11  and  C6_15 
REMARK    9  A    between atoms: C5_18  and  C6_25 
REMARK   10  A    between atoms: O3_22  and  C3_24 
REMARK   11  A    between atoms: O6A_23  and  C6_25 
ROOT
ATOM      1  C4  NAG d 902       4.581 -11.826  31.820  0.00  0.00     0.180 C 
ATOM      2  O5  NAG d 902       3.685 -13.099  33.746  0.00  0.00    -0.349 OA
ATOM      3  C1  NAG d 902       2.272 -12.755  33.396  0.00  0.00     0.282 C 
ATOM      4  C5  NAG d 902       4.599 -13.159  32.548  0.00  0.00     0.179 C 
ATOM      5  C3  NAG d 902       3.120 -11.480  31.428  0.00  0.00     0.183 C 
ATOM      6  C2  NAG d 902       2.238 -11.398  32.680  0.00  0.00     0.171 C 
ENDROOT
BRANCH   5   7
ATOM      7  O3  NAG d 902       3.054 -10.206  30.743  0.00  0.00    -0.348 OA
BRANCH   7   8
ATOM      8  C1  GCD d 901       2.778 -10.153  29.358  0.00  0.00     0.298 C 
ATOM      9  C2  GCD d 901       3.929  -9.609  28.571  0.00  0.00     0.206 C 
ATOM     10  C3  GCD d 901       3.465  -9.630  27.072  0.00  0.00     0.177 C 
ATOM     11  C4  GCD d 901       2.616 -10.824  26.590  0.00  0.00     0.051 C 
ATOM     12  C5  GCD d 901       2.288 -11.797  27.465  0.00  0.00     0.144 C 
ATOM     13  O5  GCD d 901       2.568 -11.585  28.930  0.00  0.00    -0.311 OA
BRANCH   9  14
ATOM     14  O2  GCD d 901       4.276  -8.249  28.986  0.00  0.00    -0.388 OA
ATOM     15  H   GCD d 901       5.237  -8.180  29.097  0.00  0.00     0.210 HD
ENDBRANCH   9  14
BRANCH  10  16
ATOM     16  O3  GCD d 901       4.544  -9.154  26.289  0.00  0.00    -0.389 OA
ATOM     17  H   GCD d 901       5.318  -9.015  26.857  0.00  0.00     0.210 HD
ENDBRANCH  10  16
BRANCH  12  18
ATOM     18  C6  GCD d 901       1.468 -13.012  27.111  0.00  0.00     0.200 C 
ATOM     19  O6B GCD d 901       1.282 -13.094  25.842  0.00  0.00    -0.645 OA
BRANCH  18  20
ATOM     20  O6A GCD d 901       0.870 -13.608  28.085  0.00  0.00    -0.771 OA
ATOM     21  H   GCD d 901       0.942 -13.271  28.956  0.00  0.00     0.167 HD
ENDBRANCH  18  20
ENDBRANCH  12  18
ENDBRANCH   7   8
ENDBRANCH   5   7
BRANCH   1  22
ATOM     22  O4  NAG d 902       5.445 -11.906  30.661  0.00  0.00    -0.390 OA
ATOM     23  H   NAG d 902       6.283 -11.459  30.852  0.00  0.00     0.210 HD
ENDBRANCH   1  22
BRANCH   6  24
ATOM     24  N2  NAG d 902       0.837 -10.990  32.259  0.00  0.00    -0.349 N 
ATOM     25  C7  NAG d 902       0.468  -9.613  32.395  0.00  0.00     0.214 C 
ATOM     26  O7  NAG d 902       1.224  -8.715  32.859  0.00  0.00    -0.274 OA
ATOM     27  C8  NAG d 902      -0.929  -9.329  31.878  0.00  0.00     0.117 C 
ATOM     28  H   NAG d 902       0.202 -11.653  31.903  0.00  0.00     0.163 HD
ENDBRANCH   6  24
BRANCH   4  29
ATOM     29  C6  NAG d 902       6.024 -13.519  32.967  0.00  0.00     0.198 C 
BRANCH  29  30
ATOM     30  O6  NAG d 902       6.843 -12.370  33.316  0.00  0.00    -0.398 OA
ATOM     31  H   NAG d 902       7.216 -12.497  34.203  0.00  0.00     0.209 HD
ENDBRANCH  29  30
ENDBRANCH   4  29
BRANCH   3  32
ATOM     32  O1  NAG d 902       1.445 -12.716  34.553  0.00  0.00    -0.369 OA
ATOM     33  H   NAG d 902       1.131 -11.808  34.695  0.00  0.00     0.212 HD
ENDBRANCH   3  32
TORSDOF 11
ENDMDL
MODEL 4
REMARK VINA RESULT:      -7.0      3.429      7.338
REMARK  11 active torsions:
REMARK  status: ('A' for Active; 'I' for Inactive)
REMARK    1  A    between atoms: C4_1  and  O4_9 
REMARK    2  A    between atoms: O6_3  and  C6_15 
REMARK    3  A    between atoms: C1_4  and  O1_21 
REMARK    4  A    between atoms: O2_6  and  C2_13 
REMARK       I    between atoms: C7_7  and  N2_10 
REMARK    5  A    between atoms: O3_8  and  C1_12 
REMARK    6  A    between atoms: O3_8  and  C3_16 
REMARK    7  A    between atoms: N2_10  and  C2_20 
REMARK    8  A    between atoms: C5_11  and  C6_15 
REMARK    9  A    between atoms: C5_18  and  C6_25 
REMARK   10  A    between atoms: O3_22  and  C3_24 
REMARK   11  A    between atoms: O6A_23  and  C6_25 
ROOT
ATOM      1  C4  NAG d 902       2.426 -11.072  33.305  0.00  0.00     0.180 C 
ATOM      2  O5  NAG d 902       0.074 -10.297  33.284  0.00  0.00    -0.349 OA
ATOM      3  C1  NAG d 902       0.286  -9.490  32.042  0.00  0.00     0.282 C 
ATOM      4  C5  NAG d 902       0.972 -11.506  33.370  0.00  0.00     0.179 C 
ATOM      5  C3  NAG d 902       2.656 -10.260  32.003  0.00  0.00     0.183 C 
ATOM      6  C2  NAG d 902       1.746  -9.026  31.978  0.00  0.00     0.171 C 
ENDROOT
BRANCH   5   7
ATOM      7  O3  NAG d 902       4.030  -9.811  31.907  0.00  0.00    -0.348 OA
BRANCH   7   8
ATOM      8  C1  GCD d 901       4.878 -10.318  30.897  0.00  0.00     0.298 C 
ATOM      9  C2  GCD d 901       5.447 -11.657  31.251  0.00  0.00     0.206 C 
ATOM     10  C3  GCD d 901       6.343 -12.073  30.032  0.00  0.00     0.177 C 
ATOM     11  C4  GCD d 901       5.846 -11.728  28.613  0.00  0.00     0.051 C 
ATOM     12  C5  GCD d 901       4.676 -11.073  28.464  0.00  0.00     0.144 C 
ATOM     13  O5  GCD d 901       3.999 -10.503  29.683  0.00  0.00    -0.311 OA
BRANCH   9  14
ATOM     14  O2  GCD d 901       6.240 -11.600  32.480  0.00  0.00    -0.388 OA
ATOM     15  H   GCD d 901       5.771 -11.070  33.144  0.00  0.00     0.210 HD
ENDBRANCH   9  14
BRANCH  10  16
ATOM     16  O3  GCD d 901       6.872 -13.355  30.315  0.00  0.00    -0.389 OA
ATOM     17  H   GCD d 901       7.532 -13.283  31.023  0.00  0.00     0.210 HD
ENDBRANCH  10  16
BRANCH  12  18
ATOM     18  C6  GCD d 901       4.087 -10.686  27.131  0.00  0.00     0.200 C 
ATOM     19  O6B GCD d 901       3.670 -11.718  26.489  0.00  0.00    -0.645 OA
BRANCH  18  20
ATOM     20  O6A GCD d 901       4.322  -9.485  26.724  0.00  0.00    -0.771 OA
ATOM     21  H   GCD d 901       3.645  -8.992  26.304  0.00  0.00     0.167 HD
ENDBRANCH  18  20
ENDBRANCH  12  18
ENDBRANCH   7   8
ENDBRANCH   5   7
BRANCH   1  22
ATOM     22  O4  NAG d 902       3.274 -12.243  33.366  0.00  0.00    -0.390 OA
ATOM     23  H   NAG d 902       4.035 -12.061  33.939  0.00  0.00     0.210 HD
ENDBRANCH   1  22
BRANCH   6  24
ATOM     24  N2  NAG d 902       2.053  -8.224  30.724  0.00  0.00    -0.349 N 
ATOM     25  C7  NAG d 902       1.996  -6.796  30.808  0.00  0.00     0.214 C 
ATOM     26  O7  NAG d 902       1.689  -6.155  31.851  0.00  0.00    -0.274 OA
ATOM     27  C8  NAG d 902       2.389  -6.119  29.510  0.00  0.00     0.117 C 
ATOM     28  H   NAG d 902       2.286  -8.674  29.880  0.00  0.00     0.163 HD
ENDBRANCH   6  24
BRANCH   4  29
ATOM     29  C6  NAG d 902       0.706 -12.292  34.654  0.00  0.00     0.198 C 
BRANCH  29  30
ATOM     30  O6  NAG d 902       0.731 -13.734  34.476  0.00  0.00    -0.398 OA
ATOM     31  H   NAG d 902       1.612 -14.072  34.701  0.00  0.00     0.209 HD
ENDBRANCH  29  30
ENDBRANCH   4  29
BRANCH   3  32
ATOM     32  O1  NAG d 902      -0.585  -8.365  32.000  0.00  0.00    -0.369 OA
ATOM     33  H   NAG d 902      -1.247  -8.442  32.705  0.00  0.00     0.212 HD
ENDBRANCH   3  32
TORSDOF 11
ENDMDL
MODEL 5
REMARK VINA RESULT:      -7.0      1.339      3.020
REMARK  11 active torsions:
REMARK  status: ('A' for Active; 'I' for Inactive)
REMARK    1  A    between atoms: C4_1  and  O4_9 
REMARK    2  A    between atoms: O6_3  and  C6_15 
REMARK    3  A    between atoms: C1_4  and  O1_21 
REMARK    4  A    between atoms: O2_6  and  C2_13 
REMARK       I    between atoms: C7_7  and  N2_10 
REMARK    5  A    between atoms: O3_8  and  C1_12 
REMARK    6  A    between atoms: O3_8  and  C3_16 
REMARK    7  A    between atoms: N2_10  and  C2_20 
REMARK    8  A    between atoms: C5_11  and  C6_15 
REMARK    9  A    between atoms: C5_18  and  C6_25 
REMARK   10  A    between atoms: O3_22  and  C3_24 
REMARK   11  A    between atoms: O6A_23  and  C6_25 
ROOT
ATOM      1  C4  NAG d 902       8.012  -8.740  31.123  0.00  0.00     0.180 C 
ATOM      2  O5  NAG d 902      10.222  -9.855  31.175  0.00  0.00    -0.349 OA
ATOM      3  C1  NAG d 902       9.608 -11.215  31.066  0.00  0.00     0.282 C 
ATOM      4  C5  NAG d 902       9.403  -8.776  30.514  0.00  0.00     0.179 C 
ATOM      5  C3  NAG d 902       7.360 -10.141  30.985  0.00  0.00     0.183 C 
ATOM      6  C2  NAG d 902       8.211 -11.197  31.700  0.00  0.00     0.171 C 
ENDROOT
BRANCH   5   7
ATOM      7  O3  NAG d 902       6.035 -10.157  31.569  0.00  0.00    -0.348 OA
BRANCH   7   8
ATOM      8  C1  GCD d 901       4.902 -10.410  30.763  0.00  0.00     0.298 C 
ATOM      9  C2  GCD d 901       3.631 -10.410  31.554  0.00  0.00     0.206 C 
ATOM     10  C3  GCD d 901       2.487 -10.691  30.518  0.00  0.00     0.177 C 
ATOM     11  C4  GCD d 901       2.598 -10.049  29.120  0.00  0.00     0.051 C 
ATOM     12  C5  GCD d 901       3.671  -9.285  28.827  0.00  0.00     0.144 C 
ATOM     13  O5  GCD d 901       4.832  -9.261  29.787  0.00  0.00    -0.311 OA
BRANCH   9  14
ATOM     14  O2  GCD d 901       3.643 -11.433  32.601  0.00  0.00    -0.388 OA
ATOM     15  H   GCD d 901       4.552 -11.562  32.917  0.00  0.00     0.210 HD
ENDBRANCH   9  14
BRANCH  10  16
ATOM     16  O3  GCD d 901       1.260 -10.663  31.225  0.00  0.00    -0.389 OA
ATOM     17  H   GCD d 901       1.092 -11.535  31.614  0.00  0.00     0.210 HD
ENDBRANCH  10  16
BRANCH  12  18
ATOM     18  C6  GCD d 901       3.888  -8.604  27.499  0.00  0.00     0.200 C 
ATOM     19  O6B GCD d 901       3.345  -7.440  27.480  0.00  0.00    -0.645 OA
BRANCH  18  20
ATOM     20  O6A GCD d 901       4.317  -9.345  26.535  0.00  0.00    -0.771 OA
ATOM     21  H   GCD d 901       3.832  -9.399  25.734  0.00  0.00     0.167 HD
ENDBRANCH  18  20
ENDBRANCH  12  18
ENDBRANCH   7   8
ENDBRANCH   5   7
BRANCH   1  22
ATOM     22  O4  NAG d 902       7.231  -7.715  30.465  0.00  0.00    -0.390 OA
ATOM     23  H   NAG d 902       7.138  -7.933  29.525  0.00  0.00     0.210 HD
ENDBRANCH   1  22
BRANCH   6  24
ATOM     24  N2  NAG d 902       7.503 -12.537  31.601  0.00  0.00    -0.349 N 
ATOM     25  C7  NAG d 902       6.874 -13.055  32.778  0.00  0.00     0.214 C 
ATOM     26  O7  NAG d 902       6.882 -12.480  33.902  0.00  0.00    -0.274 OA
ATOM     27  C8  NAG d 902       6.148 -14.362  32.526  0.00  0.00     0.117 C 
ATOM     28  H   NAG d 902       7.478 -13.035  30.752  0.00  0.00     0.163 HD
ENDBRANCH   6  24
BRANCH   4  29
ATOM     29  C6  NAG d 902      10.082  -7.414  30.653  0.00  0.00     0.198 C 
BRANCH  29  30
ATOM     30  O6  NAG d 902      11.398  -7.348  30.039  0.00  0.00    -0.398 OA
ATOM     31  H   NAG d 902      11.475  -8.042  29.366  0.00  0.00     0.209 HD
ENDBRANCH  29  30
ENDBRANCH   4  29
BRANCH   3  32
ATOM     32  O1  NAG d 902      10.416 -12.202  31.697  0.00  0.00    -0.369 OA
ATOM     33  H   NAG d 902      11.331 -11.883  31.751  0.00  0.00     0.212 HD
ENDBRANCH   3  32
TORSDOF 11
ENDMDL
MODEL 6
REMARK VINA RESULT:      -7.0      2.007      2.721
REMARK  11 active torsions:
REMARK  status: ('A' for Active; 'I' for Inactive)
REMARK    1  A    between atoms: C4_1  and  O4_9 
REMARK    2  A    between atoms: O6_3  and  C6_15 
REMARK    3  A    between atoms: C1_4  and  O1_21 
REMARK    4  A    between atoms: O2_6  and  C2_13 
REMARK       I    between atoms: C7_7  and  N2_10 
REMARK    5  A    between atoms: O3_8  and  C1_12 
REMARK    6  A    between atoms: O3_8  and  C3_16 
REMARK    7  A    between atoms: N2_10  and  C2_20 
REMARK    8  A    between atoms: C5_11  and  C6_15 
REMARK    9  A    between atoms: C5_18  and  C6_25 
REMARK   10  A    between atoms: O3_22  and  C3_24 
REMARK   11  A    between atoms: O6A_23  and  C6_25 
ROOT
ATOM      1  C4  NAG d 902       8.298  -8.457  31.258  0.00  0.00     0.180 C 
ATOM      2  O5  NAG d 902      10.372  -9.786  31.008  0.00  0.00    -0.349 OA
ATOM      3  C1  NAG d 902       9.613 -11.074  30.941  0.00  0.00     0.282 C 
ATOM      4  C5  NAG d 902       9.594  -8.607  30.481  0.00  0.00     0.179 C 
ATOM      5  C3  NAG d 902       7.494  -9.781  31.167  0.00  0.00     0.183 C 
ATOM      6  C2  NAG d 902       8.313 -10.942  31.744  0.00  0.00     0.171 C 
ENDROOT
BRANCH   5   7
ATOM      7  O3  NAG d 902       6.254  -9.687  31.910  0.00  0.00    -0.348 OA
BRANCH   7   8
ATOM      8  C1  GCD d 901       5.032  -9.469  31.236  0.00  0.00     0.298 C 
ATOM      9  C2  GCD d 901       4.221 -10.721  31.113  0.00  0.00     0.206 C 
ATOM     10  C3  GCD d 901       2.909 -10.304  30.360  0.00  0.00     0.177 C 
ATOM     11  C4  GCD d 901       2.282  -8.935  30.695  0.00  0.00     0.051 C 
ATOM     12  C5  GCD d 901       2.882  -8.139  31.605  0.00  0.00     0.144 C 
ATOM     13  O5  GCD d 901       4.255  -8.506  32.101  0.00  0.00    -0.311 OA
BRANCH   9  14
ATOM     14  O2  GCD d 901       4.936 -11.760  30.368  0.00  0.00    -0.388 OA
ATOM     15  H   GCD d 901       4.944 -11.534  29.425  0.00  0.00     0.210 HD
ENDBRANCH   9  14
BRANCH  10  16
ATOM     16  O3  GCD d 901       2.096 -11.459  30.255  0.00  0.00    -0.389 OA
ATOM     17  H   GCD d 901       2.578 -12.150  29.774  0.00  0.00     0.210 HD
ENDBRANCH  10  16
BRANCH  12  18
ATOM     18  C6  GCD d 901       2.362  -6.785  32.016  0.00  0.00     0.200 C 
ATOM     19  O6B GCD d 901       2.649  -5.890  31.140  0.00  0.00    -0.645 OA
BRANCH  18  20
ATOM     20  O6A GCD d 901       1.972  -6.664  33.240  0.00  0.00    -0.771 OA
ATOM     21  H   GCD d 901       1.182  -7.080  33.523  0.00  0.00     0.167 HD
ENDBRANCH  18  20
ENDBRANCH  12  18
ENDBRANCH   7   8
ENDBRANCH   5   7
BRANCH   1  22
ATOM     22  O4  NAG d 902       7.553  -7.335  30.728  0.00  0.00    -0.390 OA
ATOM     23  H   NAG d 902       7.276  -7.532  29.820  0.00  0.00     0.210 HD
ENDBRANCH   1  22
BRANCH   6  24
ATOM     24  N2  NAG d 902       7.464 -12.201  31.700  0.00  0.00    -0.349 N 
ATOM     25  C7  NAG d 902       7.248 -12.910  32.925  0.00  0.00     0.214 C 
ATOM     26  O7  NAG d 902       7.730 -12.570  34.040  0.00  0.00    -0.274 OA
ATOM     27  C8  NAG d 902       6.331 -14.105  32.754  0.00  0.00     0.117 C 
ATOM     28  H   NAG d 902       7.074 -12.519  30.854  0.00  0.00     0.163 HD
ENDBRANCH   6  24
BRANCH   4  29
ATOM     29  C6  NAG d 902      10.422  -7.325  30.568  0.00  0.00     0.198 C 
BRANCH  29  30
ATOM     30  O6  NAG d 902       9.946  -6.258  29.705  0.00  0.00    -0.398 OA
ATOM     31  H   NAG d 902      10.394  -5.429  29.938  0.00  0.00     0.209 HD
ENDBRANCH  29  30
ENDBRANCH   4  29
BRANCH   3  32
ATOM     32  O1  NAG d 902      10.386 -12.158  31.442  0.00  0.00    -0.369 OA
ATOM     33  H   NAG d 902      11.239 -11.826  31.764  0.00  0.00     0.212 HD
ENDBRANCH   3  32
TORSDOF 11
ENDMDL
MODEL 7
REMARK VINA RESULT:      -7.0      2.716      5.338
REMARK  11 active torsions:
REMARK  status: ('A' for Active; 'I' for Inactive)
REMARK    1  A    between atoms: C4_1  and  O4_9 
REMARK    2  A    between atoms: O6_3  and  C6_15 
REMARK    3  A    between atoms: C1_4  and  O1_21 
REMARK    4  A    between atoms: O2_6  and  C2_13 
REMARK       I    between atoms: C7_7  and  N2_10 
REMARK    5  A    between atoms: O3_8  and  C1_12 
REMARK    6  A    between atoms: O3_8  and  C3_16 
REMARK    7  A    between atoms: N2_10  and  C2_20 
REMARK    8  A    between atoms: C5_11  and  C6_15 
REMARK    9  A    between atoms: C5_18  and  C6_25 
REMARK   10  A    between atoms: O3_22  and  C3_24 
REMARK   11  A    between atoms: O6A_23  and  C6_25 
ROOT
ATOM      1  C4  NAG d 902       5.874  -8.830  29.614  0.00  0.00     0.180 C 
ATOM      2  O5  NAG d 902       4.893  -7.505  27.766  0.00  0.00    -0.349 OA
ATOM      3  C1  NAG d 902       3.707  -8.410  27.662  0.00  0.00     0.282 C 
ATOM      4  C5  NAG d 902       5.474  -7.438  29.156  0.00  0.00     0.179 C 
ATOM      5  C3  NAG d 902       4.638  -9.765  29.536  0.00  0.00     0.183 C 
ATOM      6  C2  NAG d 902       4.105  -9.826  28.100  0.00  0.00     0.171 C 
ENDROOT
BRANCH   5   7
ATOM      7  O3  NAG d 902       4.979 -11.111  29.950  0.00  0.00    -0.348 OA
BRANCH   7   8
ATOM      8  C1  GCD d 901       4.649 -11.564  31.247  0.00  0.00     0.298 C 
ATOM      9  C2  GCD d 901       3.465 -12.481  31.243  0.00  0.00     0.206 C 
ATOM     10  C3  GCD d 901       3.245 -12.895  32.741  0.00  0.00     0.177 C 
ATOM     11  C4  GCD d 901       4.490 -13.146  33.616  0.00  0.00     0.051 C 
ATOM     12  C5  GCD d 901       5.718 -12.989  33.079  0.00  0.00     0.144 C 
ATOM     13  O5  GCD d 901       5.842 -12.363  31.715  0.00  0.00    -0.311 OA
BRANCH   9  14
ATOM     14  O2  GCD d 901       2.272 -11.822  30.708  0.00  0.00    -0.388 OA
ATOM     15  H   GCD d 901       1.636 -12.494  30.415  0.00  0.00     0.210 HD
ENDBRANCH   9  14
BRANCH  10  16
ATOM     16  O3  GCD d 901       2.151 -13.793  32.774  0.00  0.00    -0.389 OA
ATOM     17  H   GCD d 901       1.986 -14.134  31.881  0.00  0.00     0.210 HD
ENDBRANCH  10  16
BRANCH  12  18
ATOM     18  C6  GCD d 901       7.005 -13.209  33.833  0.00  0.00     0.200 C 
ATOM     19  O6B GCD d 901       6.801 -13.862  34.921  0.00  0.00    -0.645 OA
BRANCH  18  20
ATOM     20  O6A GCD d 901       8.023 -12.517  33.450  0.00  0.00    -0.771 OA
ATOM     21  H   GCD d 901       8.694 -12.290  34.064  0.00  0.00     0.167 HD
ENDBRANCH  18  20
ENDBRANCH  12  18
ENDBRANCH   7   8
ENDBRANCH   5   7
BRANCH   1  22
ATOM     22  O4  NAG d 902       6.409  -8.753  30.956  0.00  0.00    -0.390 OA
ATOM     23  H   NAG d 902       6.841  -7.894  31.083  0.00  0.00     0.210 HD
ENDBRANCH   1  22
BRANCH   6  24
ATOM     24  N2  NAG d 902       2.944 -10.804  28.056  0.00  0.00    -0.349 N 
ATOM     25  C7  NAG d 902       2.998 -11.871  27.103  0.00  0.00     0.214 C 
ATOM     26  O7  NAG d 902       3.940 -12.046  26.282  0.00  0.00    -0.274 OA
ATOM     27  C8  NAG d 902       1.813 -12.810  27.210  0.00  0.00     0.117 C 
ATOM     28  H   NAG d 902       2.176 -10.706  28.665  0.00  0.00     0.163 HD
ENDBRANCH   6  24
BRANCH   4  29
ATOM     29  C6  NAG d 902       6.676  -6.495  29.199  0.00  0.00     0.198 C 
BRANCH  29  30
ATOM     30  O6  NAG d 902       6.860  -5.720  27.984  0.00  0.00    -0.398 OA
ATOM     31  H   NAG d 902       5.997  -5.414  27.663  0.00  0.00     0.209 HD
ENDBRANCH  29  30
ENDBRANCH   4  29
BRANCH   3  32
ATOM     32  O1  NAG d 902       3.189  -8.438  26.338  0.00  0.00    -0.369 OA
ATOM     33  H   NAG d 902       3.913  -8.310  25.705  0.00  0.00     0.212 HD
ENDBRANCH   3  32
TORSDOF 11
ENDMDL
MODEL 8
REMARK VINA RESULT:      -7.0      1.707      4.483
REMARK  11 active torsions:
REMARK  status: ('A' for Active; 'I' for Inactive)
REMARK    1  A    between atoms: C4_1  and  O4_9 
REMARK    2  A    between atoms: O6_3  and  C6_15 
REMARK    3  A    between atoms: C1_4  and  O1_21 
REMARK    4  A    between atoms: O2_6  and  C2_13 
REMARK       I    between atoms: C7_7  and  N2_10 
REMARK    5  A    between atoms: O3_8  and  C1_12 
REMARK    6  A    between atoms: O3_8  and  C3_16 
REMARK    7  A    between atoms: N2_10  and  C2_20 
REMARK    8  A    between atoms: C5_11  and  C6_15 
REMARK    9  A    between atoms: C5_18  and  C6_25 
REMARK   10  A    between atoms: O3_22  and  C3_24 
REMARK   11  A    between atoms: O6A_23  and  C6_25 
ROOT
ATOM      1  C4  NAG d 902       8.064  -8.945  30.083  0.00  0.00     0.180 C 
ATOM      2  O5  NAG d 902       6.741  -7.054  29.186  0.00  0.00    -0.349 OA
ATOM      3  C1  NAG d 902       5.472  -7.846  29.218  0.00  0.00     0.282 C 
ATOM      4  C5  NAG d 902       7.732  -7.472  30.243  0.00  0.00     0.179 C 
ATOM      5  C3  NAG d 902       6.753  -9.772  30.147  0.00  0.00     0.183 C 
ATOM      6  C2  NAG d 902       5.793  -9.334  29.034  0.00  0.00     0.171 C 
ENDROOT
BRANCH   5   7
ATOM      7  O3  NAG d 902       7.023 -11.186  29.982  0.00  0.00    -0.348 OA
BRANCH   7   8
ATOM      8  C1  GCD d 901       6.710 -12.097  31.016  0.00  0.00     0.298 C 
ATOM      9  C2  GCD d 901       7.639 -11.972  32.183  0.00  0.00     0.206 C 
ATOM     10  C3  GCD d 901       7.150 -13.034  33.229  0.00  0.00     0.177 C 
ATOM     11  C4  GCD d 901       5.631 -13.247  33.393  0.00  0.00     0.051 C 
ATOM     12  C5  GCD d 901       4.778 -12.534  32.629  0.00  0.00     0.144 C 
ATOM     13  O5  GCD d 901       5.328 -11.717  31.490  0.00  0.00    -0.311 OA
BRANCH   9  14
ATOM     14  O2  GCD d 901       9.029 -12.227  31.799  0.00  0.00    -0.388 OA
ATOM     15  H   GCD d 901       9.204 -11.826  30.933  0.00  0.00     0.210 HD
ENDBRANCH   9  14
BRANCH  10  16
ATOM     16  O3  GCD d 901       7.986 -12.922  34.367  0.00  0.00    -0.389 OA
ATOM     17  H   GCD d 901       8.794 -13.438  34.226  0.00  0.00     0.210 HD
ENDBRANCH  10  16
BRANCH  12  18
ATOM     18  C6  GCD d 901       3.276 -12.652  32.702  0.00  0.00     0.200 C 
ATOM     19  O6B GCD d 901       2.784 -11.816  33.544  0.00  0.00    -0.645 OA
BRANCH  18  20
ATOM     20  O6A GCD d 901       2.753 -13.696  32.155  0.00  0.00    -0.771 OA
ATOM     21  H   GCD d 901       1.911 -13.998  32.431  0.00  0.00     0.167 HD
ENDBRANCH  18  20
ENDBRANCH  12  18
ENDBRANCH   7   8
ENDBRANCH   5   7
BRANCH   1  22
ATOM     22  O4  NAG d 902       8.999  -9.336  31.117  0.00  0.00    -0.390 OA
ATOM     23  H   NAG d 902       8.773 -10.222  31.438  0.00  0.00     0.210 HD
ENDBRANCH   1  22
BRANCH   6  24
ATOM     24  N2  NAG d 902       4.556 -10.214  29.088  0.00  0.00    -0.349 N 
ATOM     25  C7  NAG d 902       3.913 -10.547  27.853  0.00  0.00     0.214 C 
ATOM     26  O7  NAG d 902       4.293 -10.145  26.720  0.00  0.00    -0.274 OA
ATOM     27  C8  NAG d 902       2.735 -11.483  28.043  0.00  0.00     0.117 C 
ATOM     28  H   NAG d 902       4.208 -10.545  29.948  0.00  0.00     0.163 HD
ENDBRANCH   6  24
BRANCH   4  29
ATOM     29  C6  NAG d 902       9.002  -6.625  30.164  0.00  0.00     0.198 C 
BRANCH  29  30
ATOM     30  O6  NAG d 902       9.718  -6.519  31.424  0.00  0.00    -0.398 OA
ATOM     31  H   NAG d 902      10.610  -6.886  31.320  0.00  0.00     0.209 HD
ENDBRANCH  29  30
ENDBRANCH   4  29
BRANCH   3  32
ATOM     32  O1  NAG d 902       4.565  -7.415  28.210  0.00  0.00    -0.369 OA
ATOM     33  H   NAG d 902       4.844  -7.771  27.352  0.00  0.00     0.212 HD
ENDBRANCH   3  32
TORSDOF 11
ENDMDL
MODEL 9
REMARK VINA RESULT:      -6.9      2.297      2.807
REMARK  11 active torsions:
REMARK  status: ('A' for Active; 'I' for Inactive)
REMARK    1  A    between atoms: C4_1  and  O4_9 
REMARK    2  A    between atoms: O6_3  and  C6_15 
REMARK    3  A    between atoms: C1_4  and  O1_21 
REMARK    4  A    between atoms: O2_6  and  C2_13 
REMARK       I    between atoms: C7_7  and  N2_10 
REMARK    5  A    between atoms: O3_8  and  C1_12 
REMARK    6  A    between atoms: O3_8  and  C3_16 
REMARK    7  A    between atoms: N2_10  and  C2_20 
REMARK    8  A    between atoms: C5_11  and  C6_15 
REMARK    9  A    between atoms: C5_18  and  C6_25 
REMARK   10  A    between atoms: O3_22  and  C3_24 
REMARK   11  A    between atoms: O6A_23  and  C6_25 
ROOT
ATOM      1  C4  NAG d 902       8.572  -7.992  30.755  0.00  0.00     0.180 C 
ATOM      2  O5  NAG d 902      10.627  -9.334  31.088  0.00  0.00    -0.349 OA
ATOM      3  C1  NAG d 902       9.888 -10.623  30.910  0.00  0.00     0.282 C 
ATOM      4  C5  NAG d 902      10.015  -8.186  30.324  0.00  0.00     0.179 C 
ATOM      5  C3  NAG d 902       7.795  -9.318  30.545  0.00  0.00     0.183 C 
ATOM      6  C2  NAG d 902       8.434 -10.445  31.366  0.00  0.00     0.171 C 
ENDROOT
BRANCH   5   7
ATOM      7  O3  NAG d 902       6.414  -9.183  30.959  0.00  0.00    -0.348 OA
BRANCH   7   8
ATOM      8  C1  GCD d 901       5.367  -9.388  30.033  0.00  0.00     0.298 C 
ATOM      9  C2  GCD d 901       4.981  -8.127  29.324  0.00  0.00     0.206 C 
ATOM     10  C3  GCD d 901       3.829  -8.531  28.338  0.00  0.00     0.177 C 
ATOM     11  C4  GCD d 901       3.931  -9.892  27.620  0.00  0.00     0.051 C 
ATOM     12  C5  GCD d 901       4.987 -10.694  27.870  0.00  0.00     0.144 C 
ATOM     13  O5  GCD d 901       5.918 -10.341  29.000  0.00  0.00    -0.311 OA
BRANCH   9  14
ATOM     14  O2  GCD d 901       4.524  -7.097  30.259  0.00  0.00    -0.388 OA
ATOM     15  H   GCD d 901       5.146  -6.352  30.249  0.00  0.00     0.210 HD
ENDBRANCH   9  14
BRANCH  10  16
ATOM     16  O3  GCD d 901       3.461  -7.367  27.620  0.00  0.00    -0.389 OA
ATOM     17  H   GCD d 901       3.484  -7.553  26.669  0.00  0.00     0.210 HD
ENDBRANCH  10  16
BRANCH  12  18
ATOM     18  C6  GCD d 901       5.196 -12.042  27.228  0.00  0.00     0.200 C 
ATOM     19  O6B GCD d 901       4.184 -12.377  26.510  0.00  0.00    -0.645 OA
BRANCH  18  20
ATOM     20  O6A GCD d 901       6.173 -12.751  27.681  0.00  0.00    -0.771 OA
ATOM     21  H   GCD d 901       5.999 -13.535  28.165  0.00  0.00     0.167 HD
ENDBRANCH  18  20
ENDBRANCH  12  18
ENDBRANCH   7   8
ENDBRANCH   5   7
BRANCH   1  22
ATOM     22  O4  NAG d 902       7.993  -6.902  29.999  0.00  0.00    -0.390 OA
ATOM     23  H   NAG d 902       8.184  -6.062  30.444  0.00  0.00     0.210 HD
ENDBRANCH   1  22
BRANCH   6  24
ATOM     24  N2  NAG d 902       7.604 -11.704  31.186  0.00  0.00    -0.349 N 
ATOM     25  C7  NAG d 902       7.504 -12.608  32.293  0.00  0.00     0.214 C 
ATOM     26  O7  NAG d 902       8.075 -12.438  33.405  0.00  0.00    -0.274 OA
ATOM     27  C8  NAG d 902       6.594 -13.786  32.004  0.00  0.00     0.117 C 
ATOM     28  H   NAG d 902       7.147 -11.893  30.334  0.00  0.00     0.163 HD
ENDBRANCH   6  24
BRANCH   4  29
ATOM     29  C6  NAG d 902      10.815  -6.901  30.539  0.00  0.00     0.198 C 
BRANCH  29  30
ATOM     30  O6  NAG d 902      10.798  -6.001  29.399  0.00  0.00    -0.398 OA
ATOM     31  H   NAG d 902      10.729  -5.085  29.711  0.00  0.00     0.209 HD
ENDBRANCH  29  30
ENDBRANCH   4  29
BRANCH   3  32
ATOM     32  O1  NAG d 902      10.502 -11.677  31.642  0.00  0.00    -0.369 OA
ATOM     33  H   NAG d 902      10.699 -12.415  31.042  0.00  0.00     0.212 HD
ENDBRANCH   3  32
TORSDOF 11
ENDMDL
MODEL 10
REMARK VINA RESULT:      -6.9      3.245      6.229
REMARK  11 active torsions:
REMARK  status: ('A' for Active; 'I' for Inactive)
REMARK    1  A    between atoms: C4_1  and  O4_9 
REMARK    2  A    between atoms: O6_3  and  C6_15 
REMARK    3  A    between atoms: C1_4  and  O1_21 
REMARK    4  A    between atoms: O2_6  and  C2_13 
REMARK       I    between atoms: C7_7  and  N2_10 
REMARK    5  A    between atoms: O3_8  and  C1_12 
REMARK    6  A    between atoms: O3_8  and  C3_16 
REMARK    7  A    between atoms: N2_10  and  C2_20 
REMARK    8  A    between atoms: C5_11  and  C6_15 
REMARK    9  A    between atoms: C5_18  and  C6_25 
REMARK   10  A    between atoms: O3_22  and  C3_24 
REMARK   11  A    between atoms: O6A_23  and  C6_25 
ROOT
ATOM      1  C4  NAG d 902       3.932  -8.760  30.900  0.00  0.00     0.180 C 
ATOM      2  O5  NAG d 902       1.523  -8.226  31.106  0.00  0.00    -0.349 OA
ATOM      3  C1  NAG d 902       1.119  -9.512  30.456  0.00  0.00     0.282 C 
ATOM      4  C5  NAG d 902       2.832  -8.319  31.849  0.00  0.00     0.179 C 
ATOM      5  C3  NAG d 902       3.530 -10.108  30.246  0.00  0.00     0.183 C 
ATOM      6  C2  NAG d 902       2.213  -9.955  29.476  0.00  0.00     0.171 C 
ENDROOT
BRANCH   5   7
ATOM      7  O3  NAG d 902       4.547 -10.559  29.318  0.00  0.00    -0.348 OA
BRANCH   7   8
ATOM      8  C1  GCD d 901       5.302 -11.721  29.595  0.00  0.00     0.298 C 
ATOM      9  C2  GCD d 901       6.279 -12.037  28.506  0.00  0.00     0.206 C 
ATOM     10  C3  GCD d 901       7.031 -13.332  28.973  0.00  0.00     0.177 C 
ATOM     11  C4  GCD d 901       7.379 -13.471  30.469  0.00  0.00     0.051 C 
ATOM     12  C5  GCD d 901       7.016 -12.493  31.326  0.00  0.00     0.144 C 
ATOM     13  O5  GCD d 901       6.094 -11.405  30.841  0.00  0.00    -0.311 OA
BRANCH   9  14
ATOM     14  O2  GCD d 901       5.608 -12.263  27.224  0.00  0.00    -0.388 OA
ATOM     15  H   GCD d 901       5.831 -13.147  26.894  0.00  0.00     0.210 HD
ENDBRANCH   9  14
BRANCH  10  16
ATOM     16  O3  GCD d 901       7.993 -13.643  27.981  0.00  0.00    -0.389 OA
ATOM     17  H   GCD d 901       8.233 -12.835  27.501  0.00  0.00     0.210 HD
ENDBRANCH  10  16
BRANCH  12  18
ATOM     18  C6  GCD d 901       7.303 -12.515  32.806  0.00  0.00     0.200 C 
ATOM     19  O6B GCD d 901       6.217 -12.461  33.491  0.00  0.00    -0.645 OA
BRANCH  18  20
ATOM     20  O6A GCD d 901       8.527 -12.317  33.159  0.00  0.00    -0.771 OA
ATOM     21  H   GCD d 901       8.770 -12.377  34.062  0.00  0.00     0.167 HD
ENDBRANCH  18  20
ENDBRANCH  12  18
ENDBRANCH   7   8
ENDBRANCH   5   7
BRANCH   1  22
ATOM     22  O4  NAG d 902       5.177  -8.865  31.631  0.00  0.00    -0.390 OA
ATOM     23  H   NAG d 902       5.768  -9.484  31.176  0.00  0.00     0.210 HD
ENDBRANCH   1  22
BRANCH   6  24
ATOM     24  N2  NAG d 902       1.894 -11.275  28.796  0.00  0.00    -0.349 N 
ATOM     25  C7  NAG d 902       1.985 -11.337  27.369  0.00  0.00     0.214 C 
ATOM     26  O7  NAG d 902       2.297 -10.361  26.632  0.00  0.00    -0.274 OA
ATOM     27  C8  NAG d 902       1.708 -12.724  26.825  0.00  0.00     0.117 C 
ATOM     28  H   NAG d 902       1.632 -12.066  29.322  0.00  0.00     0.163 HD
ENDBRANCH   6  24
BRANCH   4  29
ATOM     29  C6  NAG d 902       3.188  -6.980  32.494  0.00  0.00     0.198 C 
BRANCH  29  30
ATOM     30  O6  NAG d 902       2.233  -6.539  33.498  0.00  0.00    -0.398 OA
ATOM     31  H   NAG d 902       2.602  -5.785  33.985  0.00  0.00     0.209 HD
ENDBRANCH  29  30
ENDBRANCH   4  29
BRANCH   3  32
ATOM     32  O1  NAG d 902      -0.122  -9.381  29.773  0.00  0.00    -0.369 OA
ATOM     33  H   NAG d 902       0.039  -9.321  28.818  0.00  0.00     0.212 HD
ENDBRANCH   3  32
TORSDOF 11
ENDMDL
MODEL 11
REMARK VINA RESULT:      -6.9      3.379      6.690
REMARK  11 active torsions:
REMARK  status: ('A' for Active; 'I' for Inactive)
REMARK    1  A    between atoms: C4_1  and  O4_9 
REMARK    2  A    between atoms: O6_3  and  C6_15 
REMARK    3  A    between atoms: C1_4  and  O1_21 
REMARK    4  A    between atoms: O2_6  and  C2_13 
REMARK       I    between atoms: C7_7  and  N2_10 
REMARK    5  A    between atoms: O3_8  and  C1_12 
REMARK    6  A    between atoms: O3_8  and  C3_16 
REMARK    7  A    between atoms: N2_10  and  C2_20 
REMARK    8  A    between atoms: C5_11  and  C6_15 
REMARK    9  A    between atoms: C5_18  and  C6_25 
REMARK   10  A    between atoms: O3_22  and  C3_24 
REMARK   11  A    between atoms: O6A_23  and  C6_25 
ROOT
ATOM      1  C4  NAG d 902       1.630 -10.624  27.696  0.00  0.00     0.180 C 
ATOM      2  O5  NAG d 902       3.180 -11.629  26.047  0.00  0.00    -0.349 OA
ATOM      3  C1  NAG d 902       4.120 -12.088  27.117  0.00  0.00     0.282 C 
ATOM      4  C5  NAG d 902       1.745 -11.558  26.504  0.00  0.00     0.179 C 
ATOM      5  C3  NAG d 902       2.581 -11.114  28.820  0.00  0.00     0.183 C 
ATOM      6  C2  NAG d 902       4.030 -11.137  28.318  0.00  0.00     0.171 C 
ENDROOT
BRANCH   5   7
ATOM      7  O3  NAG d 902       2.515 -10.241  29.973  0.00  0.00    -0.348 OA
BRANCH   7   8
ATOM      8  C1  GCD d 901       1.710 -10.582  31.083  0.00  0.00     0.298 C 
ATOM      9  C2  GCD d 901       2.473 -10.549  32.370  0.00  0.00     0.206 C 
ATOM     10  C3  GCD d 901       1.440 -10.937  33.486  0.00  0.00     0.177 C 
ATOM     11  C4  GCD d 901      -0.001 -10.404  33.358  0.00  0.00     0.051 C 
ATOM     12  C5  GCD d 901      -0.333  -9.641  32.295  0.00  0.00     0.144 C 
ATOM     13  O5  GCD d 901       0.645  -9.515  31.157  0.00  0.00    -0.311 OA
BRANCH   9  14
ATOM     14  O2  GCD d 901       3.598 -11.487  32.358  0.00  0.00    -0.388 OA
ATOM     15  H   GCD d 901       4.430 -10.993  32.298  0.00  0.00     0.210 HD
ENDBRANCH   9  14
BRANCH  10  16
ATOM     16  O3  GCD d 901       2.119 -10.882  34.727  0.00  0.00    -0.389 OA
ATOM     17  H   GCD d 901       1.626 -10.314  35.340  0.00  0.00     0.210 HD
ENDBRANCH  10  16
BRANCH  12  18
ATOM     18  C6  GCD d 901      -1.706  -9.062  32.065  0.00  0.00     0.200 C 
ATOM     19  O6B GCD d 901      -2.125  -9.317  30.878  0.00  0.00    -0.645 OA
BRANCH  18  20
ATOM     20  O6A GCD d 901      -2.125  -8.209  32.937  0.00  0.00    -0.771 OA
ATOM     21  H   GCD d 901      -2.944  -8.346  33.371  0.00  0.00     0.167 HD
ENDBRANCH  18  20
ENDBRANCH  12  18
ENDBRANCH   7   8
ENDBRANCH   5   7
BRANCH   1  22
ATOM     22  O4  NAG d 902       0.252 -10.583  28.136  0.00  0.00    -0.390 OA
ATOM     23  H   NAG d 902      -0.283 -11.170  27.581  0.00  0.00     0.210 HD
ENDBRANCH   1  22
BRANCH   6  24
ATOM     24  N2  NAG d 902       4.933 -11.554  29.466  0.00  0.00    -0.349 N 
ATOM     25  C7  NAG d 902       5.973 -10.655  29.865  0.00  0.00     0.214 C 
ATOM     26  O7  NAG d 902       6.203  -9.543  29.315  0.00  0.00    -0.274 OA
ATOM     27  C8  NAG d 902       6.755 -11.160  31.062  0.00  0.00     0.117 C 
ATOM     28  H   NAG d 902       4.806 -12.417  29.923  0.00  0.00     0.163 HD
ENDBRANCH   6  24
BRANCH   4  29
ATOM     29  C6  NAG d 902       0.834 -11.090  25.369  0.00  0.00     0.198 C 
BRANCH  29  30
ATOM     30  O6  NAG d 902      -0.048 -12.125  24.858  0.00  0.00    -0.398 OA
ATOM     31  H   NAG d 902       0.480 -12.822  24.439  0.00  0.00     0.209 HD
ENDBRANCH  29  30
ENDBRANCH   4  29
BRANCH   3  32
ATOM     32  O1  NAG d 902       5.459 -12.146  26.641  0.00  0.00    -0.369 OA
ATOM     33  H   NAG d 902       6.068 -12.207  27.395  0.00  0.00     0.212 HD
ENDBRANCH   3  32
TORSDOF 11
ENDMDL
MODEL 12
REMARK VINA RESULT:      -6.9      1.654      4.178
REMARK  11 active torsions:
REMARK  status: ('A' for Active; 'I' for Inactive)
REMARK    1  A    between atoms: C4_1  and  O4_9 
REMARK    2  A    between atoms: O6_3  and  C6_15 
REMARK    3  A    between atoms: C1_4  and  O1_21 
REMARK    4  A    between atoms: O2_6  and  C2_13 
REMARK       I    between atoms: C7_7  and  N2_10 
REMARK    5  A    between atoms: O3_8  and  C1_12 
REMARK    6  A    between atoms: O3_8  and  C3_16 
REMARK    7  A    between atoms: N2_10  and  C2_20 
REMARK    8  A    between atoms: C5_11  and  C6_15 
REMARK    9  A    between atoms: C5_18  and  C6_25 
REMARK   10  A    between atoms: O3_22  and  C3_24 
REMARK   11  A    between atoms: O6A_23  and  C6_25 
ROOT
ATOM      1  C4  NAG d 902       9.021 -10.163  30.505  0.00  0.00     0.180 C 
ATOM      2  O5  NAG d 902       8.695  -7.767  29.972  0.00  0.00    -0.349 OA
ATOM      3  C1  NAG d 902       7.207  -7.880  30.083  0.00  0.00     0.282 C 
ATOM      4  C5  NAG d 902       9.435  -8.743  30.851  0.00  0.00     0.179 C 
ATOM      5  C3  NAG d 902       7.481 -10.293  30.648  0.00  0.00     0.183 C 
ATOM      6  C2  NAG d 902       6.775  -9.305  29.712  0.00  0.00     0.171 C 
ENDROOT
BRANCH   5   7
ATOM      7  O3  NAG d 902       7.040 -11.631  30.311  0.00  0.00    -0.348 OA
BRANCH   7   8
ATOM      8  C1  GCD d 901       6.309 -12.398  31.246  0.00  0.00     0.298 C 
ATOM      9  C2  GCD d 901       6.805 -12.211  32.646  0.00  0.00     0.206 C 
ATOM     10  C3  GCD d 901       5.887 -13.113  33.544  0.00  0.00     0.177 C 
ATOM     11  C4  GCD d 901       4.387 -13.198  33.197  0.00  0.00     0.051 C 
ATOM     12  C5  GCD d 901       3.915 -12.514  32.133  0.00  0.00     0.144 C 
ATOM     13  O5  GCD d 901       4.895 -11.870  31.189  0.00  0.00    -0.311 OA
BRANCH   9  14
ATOM     14  O2  GCD d 901       8.208 -12.606  32.781  0.00  0.00    -0.388 OA
ATOM     15  H   GCD d 901       8.658 -12.497  31.928  0.00  0.00     0.210 HD
ENDBRANCH   9  14
BRANCH  10  16
ATOM     16  O3  GCD d 901       6.304 -12.936  34.886  0.00  0.00    -0.389 OA
ATOM     17  H   GCD d 901       6.055 -12.048  35.186  0.00  0.00     0.210 HD
ENDBRANCH  10  16
BRANCH  12  18
ATOM     18  C6  GCD d 901       2.471 -12.517  31.698  0.00  0.00     0.200 C 
ATOM     19  O6B GCD d 901       1.959 -11.341  31.779  0.00  0.00    -0.645 OA
BRANCH  18  20
ATOM     20  O6A GCD d 901       1.907 -13.670  31.581  0.00  0.00    -0.771 OA
ATOM     21  H   GCD d 901       1.292 -13.959  32.226  0.00  0.00     0.167 HD
ENDBRANCH  18  20
ENDBRANCH  12  18
ENDBRANCH   7   8
ENDBRANCH   5   7
BRANCH   1  22
ATOM     22  O4  NAG d 902       9.723 -11.086  31.371  0.00  0.00    -0.390 OA
ATOM     23  H   NAG d 902       9.609 -11.990  31.039  0.00  0.00     0.210 HD
ENDBRANCH   1  22
BRANCH   6  24
ATOM     24  N2  NAG d 902       5.275  -9.514  29.832  0.00  0.00    -0.349 N 
ATOM     25  C7  NAG d 902       4.469  -9.286  28.671  0.00  0.00     0.214 C 
ATOM     26  O7  NAG d 902       4.918  -8.905  27.555  0.00  0.00    -0.274 OA
ATOM     27  C8  NAG d 902       3.004  -9.595  28.907  0.00  0.00     0.117 C 
ATOM     28  H   NAG d 902       4.869  -9.798  30.683  0.00  0.00     0.163 HD
ENDBRANCH   6  24
BRANCH   4  29
ATOM     29  C6  NAG d 902      10.947  -8.575  30.699  0.00  0.00     0.198 C 
BRANCH  29  30
ATOM     30  O6  NAG d 902      11.711  -9.085  31.825  0.00  0.00    -0.398 OA
ATOM     31  H   NAG d 902      11.928 -10.018  31.672  0.00  0.00     0.209 HD
ENDBRANCH  29  30
ENDBRANCH   4  29
BRANCH   3  32
ATOM     32  O1  NAG d 902       6.550  -6.938  29.243  0.00  0.00    -0.369 OA
ATOM     33  H   NAG d 902       7.120  -6.163  29.120  0.00  0.00     0.212 HD
ENDBRANCH   3  32
TORSDOF 11
ENDMDL
MODEL 13
REMARK VINA RESULT:      -6.8      3.211      6.436
REMARK  11 active torsions:
REMARK  status: ('A' for Active; 'I' for Inactive)
REMARK    1  A    between atoms: C4_1  and  O4_9 
REMARK    2  A    between atoms: O6_3  and  C6_15 
REMARK    3  A    between atoms: C1_4  and  O1_21 
REMARK    4  A    between atoms: O2_6  and  C2_13 
REMARK       I    between atoms: C7_7  and  N2_10 
REMARK    5  A    between atoms: O3_8  and  C1_12 
REMARK    6  A    between atoms: O3_8  and  C3_16 
REMARK    7  A    between atoms: N2_10  and  C2_20 
REMARK    8  A    between atoms: C5_11  and  C6_15 
REMARK    9  A    between atoms: C5_18  and  C6_25 
REMARK   10  A    between atoms: O3_22  and  C3_24 
REMARK   11  A    between atoms: O6A_23  and  C6_25 
ROOT
ATOM      1  C4  NAG d 902       1.402 -10.243  27.499  0.00  0.00     0.180 C 
ATOM      2  O5  NAG d 902       2.623 -11.733  25.943  0.00  0.00    -0.349 OA
ATOM      3  C1  NAG d 902       3.628 -12.103  26.988  0.00  0.00     0.282 C 
ATOM      4  C5  NAG d 902       1.270 -11.389  26.513  0.00  0.00     0.179 C 
ATOM      5  C3  NAG d 902       2.422 -10.635  28.601  0.00  0.00     0.183 C 
ATOM      6  C2  NAG d 902       3.788 -10.942  27.977  0.00  0.00     0.171 C 
ENDROOT
BRANCH   5   7
ATOM      7  O3  NAG d 902       2.592  -9.560  29.557  0.00  0.00    -0.348 OA
BRANCH   7   8
ATOM      8  C1  GCD d 901       2.140  -9.710  30.888  0.00  0.00     0.298 C 
ATOM      9  C2  GCD d 901       0.696  -9.343  31.042  0.00  0.00     0.206 C 
ATOM     10  C3  GCD d 901       0.359  -9.575  32.557  0.00  0.00     0.177 C 
ATOM     11  C4  GCD d 901       0.989 -10.793  33.263  0.00  0.00     0.051 C 
ATOM     12  C5  GCD d 901       1.814 -11.605  32.570  0.00  0.00     0.144 C 
ATOM     13  O5  GCD d 901       2.272 -11.181  31.200  0.00  0.00    -0.311 OA
BRANCH   9  14
ATOM     14  O2  GCD d 901       0.448  -7.950  30.665  0.00  0.00    -0.388 OA
ATOM     15  H   GCD d 901       0.306  -7.419  31.464  0.00  0.00     0.210 HD
ENDBRANCH   9  14
BRANCH  10  16
ATOM     16  O3  GCD d 901      -1.012  -9.271  32.736  0.00  0.00    -0.389 OA
ATOM     17  H   GCD d 901      -1.203  -8.402  32.350  0.00  0.00     0.210 HD
ENDBRANCH  10  16
BRANCH  12  18
ATOM     18  C6  GCD d 901       2.484 -12.825  33.151  0.00  0.00     0.200 C 
ATOM     19  O6B GCD d 901       3.721 -12.596  33.413  0.00  0.00    -0.645 OA
BRANCH  18  20
ATOM     20  O6A GCD d 901       1.842 -13.938  33.051  0.00  0.00    -0.771 OA
ATOM     21  H   GCD d 901       1.705 -14.327  32.209  0.00  0.00     0.167 HD
ENDBRANCH  18  20
ENDBRANCH  12  18
ENDBRANCH   7   8
ENDBRANCH   5   7
BRANCH   1  22
ATOM     22  O4  NAG d 902       0.100  -9.939  28.053  0.00  0.00    -0.390 OA
ATOM     23  H   NAG d 902      -0.032 -10.448  28.867  0.00  0.00     0.210 HD
ENDBRANCH   1  22
BRANCH   6  24
ATOM     24  N2  NAG d 902       4.771 -11.252  29.093  0.00  0.00    -0.349 N 
ATOM     25  C7  NAG d 902       5.716 -10.239  29.458  0.00  0.00     0.214 C 
ATOM     26  O7  NAG d 902       5.801  -9.110  28.902  0.00  0.00    -0.274 OA
ATOM     27  C8  NAG d 902       6.590 -10.650  30.627  0.00  0.00     0.117 C 
ATOM     28  H   NAG d 902       4.758 -12.123  29.553  0.00  0.00     0.163 HD
ENDBRANCH   6  24
BRANCH   4  29
ATOM     29  C6  NAG d 902       0.287 -11.026  25.400  0.00  0.00     0.198 C 
BRANCH  29  30
ATOM     30  O6  NAG d 902       0.862 -11.082  24.066  0.00  0.00    -0.398 OA
ATOM     31  H   NAG d 902       0.402 -10.452  23.490  0.00  0.00     0.209 HD
ENDBRANCH  29  30
ENDBRANCH   4  29
BRANCH   3  32
ATOM     32  O1  NAG d 902       4.886 -12.425  26.407  0.00  0.00    -0.369 OA
ATOM     33  H   NAG d 902       5.538 -12.574  27.110  0.00  0.00     0.212 HD
ENDBRANCH   3  32
TORSDOF 11
ENDMDL
MODEL 14
REMARK VINA RESULT:      -6.8      2.956      7.313
REMARK  11 active torsions:
REMARK  status: ('A' for Active; 'I' for Inactive)
REMARK    1  A    between atoms: C4_1  and  O4_9 
REMARK    2  A    between atoms: O6_3  and  C6_15 
REMARK    3  A    between atoms: C1_4  and  O1_21 
REMARK    4  A    between atoms: O2_6  and  C2_13 
REMARK       I    between atoms: C7_7  and  N2_10 
REMARK    5  A    between atoms: O3_8  and  C1_12 
REMARK    6  A    between atoms: O3_8  and  C3_16 
REMARK    7  A    between atoms: N2_10  and  C2_20 
REMARK    8  A    between atoms: C5_11  and  C6_15 
REMARK    9  A    between atoms: C5_18  and  C6_25 
REMARK   10  A    between atoms: O3_22  and  C3_24 
REMARK   11  A    between atoms: O6A_23  and  C6_25 
ROOT
ATOM      1  C4  NAG d 902       2.232 -11.317  33.465  0.00  0.00     0.180 C 
ATOM      2  O5  NAG d 902      -0.053 -10.363  33.510  0.00  0.00    -0.349 OA
ATOM      3  C1  NAG d 902       0.156  -9.641  32.216  0.00  0.00     0.282 C 
ATOM      4  C5  NAG d 902       0.755 -11.632  33.622  0.00  0.00     0.179 C 
ATOM      5  C3  NAG d 902       2.457 -10.594  32.110  0.00  0.00     0.183 C 
ATOM      6  C2  NAG d 902       1.642  -9.296  32.058  0.00  0.00     0.171 C 
ENDROOT
BRANCH   5   7
ATOM      7  O3  NAG d 902       3.854 -10.260  31.926  0.00  0.00    -0.348 OA
BRANCH   7   8
ATOM      8  C1  GCD d 901       4.726 -11.167  31.283  0.00  0.00     0.298 C 
ATOM      9  C2  GCD d 901       4.847 -10.895  29.816  0.00  0.00     0.206 C 
ATOM     10  C3  GCD d 901       5.849 -11.971  29.266  0.00  0.00     0.177 C 
ATOM     11  C4  GCD d 901       7.057 -12.355  30.145  0.00  0.00     0.051 C 
ATOM     12  C5  GCD d 901       7.208 -11.773  31.352  0.00  0.00     0.144 C 
ATOM     13  O5  GCD d 901       6.083 -10.935  31.903  0.00  0.00    -0.311 OA
BRANCH   9  14
ATOM     14  O2  GCD d 901       3.554 -10.998  29.137  0.00  0.00    -0.388 OA
ATOM     15  H   GCD d 901       3.666 -11.473  28.299  0.00  0.00     0.210 HD
ENDBRANCH   9  14
BRANCH  10  16
ATOM     16  O3  GCD d 901       6.017 -11.724  27.883  0.00  0.00    -0.389 OA
ATOM     17  H   GCD d 901       5.166 -11.464  27.495  0.00  0.00     0.210 HD
ENDBRANCH  10  16
BRANCH  12  18
ATOM     18  C6  GCD d 901       8.348 -12.064  32.296  0.00  0.00     0.200 C 
ATOM     19  O6B GCD d 901       9.472 -12.087  31.673  0.00  0.00    -0.645 OA
BRANCH  18  20
ATOM     20  O6A GCD d 901       8.030 -12.497  33.468  0.00  0.00    -0.771 OA
ATOM     21  H   GCD d 901       7.279 -13.048  33.576  0.00  0.00     0.167 HD
ENDBRANCH  18  20
ENDBRANCH  12  18
ENDBRANCH   7   8
ENDBRANCH   5   7
BRANCH   1  22
ATOM     22  O4  NAG d 902       2.992 -12.546  33.553  0.00  0.00    -0.390 OA
ATOM     23  H   NAG d 902       2.415 -13.298  33.352  0.00  0.00     0.210 HD
ENDBRANCH   1  22
BRANCH   6  24
ATOM     24  N2  NAG d 902       1.945  -8.588  30.749  0.00  0.00    -0.349 N 
ATOM     25  C7  NAG d 902       1.918  -7.157  30.736  0.00  0.00     0.214 C 
ATOM     26  O7  NAG d 902       1.643  -6.440  31.738  0.00  0.00    -0.274 OA
ATOM     27  C8  NAG d 902       2.304  -6.577  29.389  0.00  0.00     0.117 C 
ATOM     28  H   NAG d 902       2.153  -9.099  29.933  0.00  0.00     0.163 HD
ENDBRANCH   6  24
BRANCH   4  29
ATOM     29  C6  NAG d 902       0.496 -12.326  34.959  0.00  0.00     0.198 C 
BRANCH  29  30
ATOM     30  O6  NAG d 902       0.499 -13.777  34.879  0.00  0.00    -0.398 OA
ATOM     31  H   NAG d 902       1.269 -14.125  35.355  0.00  0.00     0.209 HD
ENDBRANCH  29  30
ENDBRANCH   4  29
BRANCH   3  32
ATOM     32  O1  NAG d 902      -0.629  -8.456  32.151  0.00  0.00    -0.369 OA
ATOM     33  H   NAG d 902      -0.445  -7.992  31.319  0.00  0.00     0.212 HD
ENDBRANCH   3  32
TORSDOF 11
ENDMDL
MODEL 15
REMARK VINA RESULT:      -6.8      2.627      4.811
REMARK  11 active torsions:
REMARK  status: ('A' for Active; 'I' for Inactive)
REMARK    1  A    between atoms: C4_1  and  O4_9 
REMARK    2  A    between atoms: O6_3  and  C6_15 
REMARK    3  A    between atoms: C1_4  and  O1_21 
REMARK    4  A    between atoms: O2_6  and  C2_13 
REMARK       I    between atoms: C7_7  and  N2_10 
REMARK    5  A    between atoms: O3_8  and  C1_12 
REMARK    6  A    between atoms: O3_8  and  C3_16 
REMARK    7  A    between atoms: N2_10  and  C2_20 
REMARK    8  A    between atoms: C5_11  and  C6_15 
REMARK    9  A    between atoms: C5_18  and  C6_25 
REMARK   10  A    between atoms: O3_22  and  C3_24 
REMARK   11  A    between atoms: O6A_23  and  C6_25 
ROOT
ATOM      1  C4  NAG d 902       6.535  -7.985  31.858  0.00  0.00     0.180 C 
ATOM      2  O5  NAG d 902       7.951  -6.347  30.656  0.00  0.00    -0.349 OA
ATOM      3  C1  NAG d 902       8.910  -7.407  30.213  0.00  0.00     0.282 C 
ATOM      4  C5  NAG d 902       6.544  -6.856  30.843  0.00  0.00     0.179 C 
ATOM      5  C3  NAG d 902       7.506  -9.100  31.388  0.00  0.00     0.183 C 
ATOM      6  C2  NAG d 902       8.928  -8.542  31.245  0.00  0.00     0.171 C 
ENDROOT
BRANCH   5   7
ATOM      7  O3  NAG d 902       7.542 -10.192  32.338  0.00  0.00    -0.348 OA
BRANCH   7   8
ATOM      8  C1  GCD d 901       7.504 -11.531  31.888  0.00  0.00     0.298 C 
ATOM      9  C2  GCD d 901       6.599 -12.384  32.722  0.00  0.00     0.206 C 
ATOM     10  C3  GCD d 901       6.665 -13.818  32.087  0.00  0.00     0.177 C 
ATOM     11  C4  GCD d 901       6.733 -13.929  30.550  0.00  0.00     0.051 C 
ATOM     12  C5  GCD d 901       6.749 -12.804  29.806  0.00  0.00     0.144 C 
ATOM     13  O5  GCD d 901       6.925 -11.477  30.495  0.00  0.00    -0.311 OA
BRANCH   9  14
ATOM     14  O2  GCD d 901       7.025 -12.420  34.122  0.00  0.00    -0.388 OA
ATOM     15  H   GCD d 901       7.634 -13.163  34.256  0.00  0.00     0.210 HD
ENDBRANCH   9  14
BRANCH  10  16
ATOM     16  O3  GCD d 901       5.791 -14.649  32.829  0.00  0.00    -0.389 OA
ATOM     17  H   GCD d 901       5.582 -14.224  33.675  0.00  0.00     0.210 HD
ENDBRANCH  10  16
BRANCH  12  18
ATOM     18  C6  GCD d 901       6.811 -12.787  28.299  0.00  0.00     0.200 C 
ATOM     19  O6B GCD d 901       5.762 -12.240  27.797  0.00  0.00    -0.645 OA
BRANCH  18  20
ATOM     20  O6A GCD d 901       7.715 -13.525  27.751  0.00  0.00    -0.771 OA
ATOM     21  H   GCD d 901       8.621 -13.312  27.855  0.00  0.00     0.167 HD
ENDBRANCH  18  20
ENDBRANCH  12  18
ENDBRANCH   7   8
ENDBRANCH   5   7
BRANCH   1  22
ATOM     22  O4  NAG d 902       5.183  -8.477  32.011  0.00  0.00    -0.390 OA
ATOM     23  H   NAG d 902       5.190  -9.280  32.554  0.00  0.00     0.210 HD
ENDBRANCH   1  22
BRANCH   6  24
ATOM     24  N2  NAG d 902       9.856  -9.679  30.851  0.00  0.00    -0.349 N 
ATOM     25  C7  NAG d 902      11.204  -9.643  31.331  0.00  0.00     0.214 C 
ATOM     26  O7  NAG d 902      11.682  -8.719  32.046  0.00  0.00    -0.274 OA
ATOM     27  C8  NAG d 902      12.002 -10.866  30.923  0.00  0.00     0.117 C 
ATOM     28  H   NAG d 902       9.538 -10.418  30.284  0.00  0.00     0.163 HD
ENDBRANCH   6  24
BRANCH   4  29
ATOM     29  C6  NAG d 902       5.611  -5.729  31.288  0.00  0.00     0.198 C 
BRANCH  29  30
ATOM     30  O6  NAG d 902       5.211  -5.814  32.682  0.00  0.00    -0.398 OA
ATOM     31  H   NAG d 902       4.591  -5.096  32.885  0.00  0.00     0.209 HD
ENDBRANCH  29  30
ENDBRANCH   4  29
BRANCH   3  32
ATOM     32  O1  NAG d 902      10.221  -6.882  30.043  0.00  0.00    -0.369 OA
ATOM     33  H   NAG d 902      10.749  -7.071  30.835  0.00  0.00     0.212 HD
ENDBRANCH   3  32
TORSDOF 11
ENDMDL
MODEL 16
REMARK VINA RESULT:      -6.7      2.041      3.613
REMARK  11 active torsions:
REMARK  status: ('A' for Active; 'I' for Inactive)
REMARK    1  A    between atoms: C4_1  and  O4_9 
REMARK    2  A    between atoms: O6_3  and  C6_15 
REMARK    3  A    between atoms: C1_4  and  O1_21 
REMARK    4  A    between atoms: O2_6  and  C2_13 
REMARK       I    between atoms: C7_7  and  N2_10 
REMARK    5  A    between atoms: O3_8  and  C1_12 
REMARK    6  A    between atoms: O3_8  and  C3_16 
REMARK    7  A    between atoms: N2_10  and  C2_20 
REMARK    8  A    between atoms: C5_11  and  C6_15 
REMARK    9  A    between atoms: C5_18  and  C6_25 
REMARK   10  A    between atoms: O3_22  and  C3_24 
REMARK   11  A    between atoms: O6A_23  and  C6_25 
ROOT
ATOM      1  C4  NAG d 902       7.872 -10.356  30.847  0.00  0.00     0.180 C 
ATOM      2  O5  NAG d 902       8.450 -12.589  31.747  0.00  0.00    -0.349 OA
ATOM      3  C1  NAG d 902       7.056 -13.097  31.554  0.00  0.00     0.282 C 
ATOM      4  C5  NAG d 902       8.839 -11.523  30.755  0.00  0.00     0.179 C 
ATOM      5  C3  NAG d 902       6.427 -10.874  30.618  0.00  0.00     0.183 C 
ATOM      6  C2  NAG d 902       6.067 -11.930  31.670  0.00  0.00     0.171 C 
ENDROOT
BRANCH   5   7
ATOM      7  O3  NAG d 902       5.467  -9.793  30.713  0.00  0.00    -0.348 OA
BRANCH   7   8
ATOM      8  C1  GCD d 901       4.432  -9.671  29.759  0.00  0.00     0.298 C 
ATOM      9  C2  GCD d 901       4.393  -8.311  29.135  0.00  0.00     0.206 C 
ATOM     10  C3  GCD d 901       3.210  -8.350  28.105  0.00  0.00     0.177 C 
ATOM     11  C4  GCD d 901       2.995  -9.645  27.294  0.00  0.00     0.051 C 
ATOM     12  C5  GCD d 901       3.812 -10.698  27.503  0.00  0.00     0.144 C 
ATOM     13  O5  GCD d 901       4.764 -10.663  28.669  0.00  0.00    -0.311 OA
BRANCH   9  14
ATOM     14  O2  GCD d 901       4.175  -7.263  30.134  0.00  0.00    -0.388 OA
ATOM     15  H   GCD d 901       4.701  -6.481  29.903  0.00  0.00     0.210 HD
ENDBRANCH   9  14
BRANCH  10  16
ATOM     16  O3  GCD d 901       3.164  -7.087  27.467  0.00  0.00    -0.389 OA
ATOM     17  H   GCD d 901       2.313  -6.987  27.011  0.00  0.00     0.210 HD
ENDBRANCH  10  16
BRANCH  12  18
ATOM     18  C6  GCD d 901       3.702 -12.012  26.770  0.00  0.00     0.200 C 
ATOM     19  O6B GCD d 901       2.527 -12.517  26.894  0.00  0.00    -0.645 OA
BRANCH  18  20
ATOM     20  O6A GCD d 901       4.808 -12.548  26.379  0.00  0.00    -0.771 OA
ATOM     21  H   GCD d 901       5.372 -12.964  27.001  0.00  0.00     0.167 HD
ENDBRANCH  18  20
ENDBRANCH  12  18
ENDBRANCH   7   8
ENDBRANCH   5   7
BRANCH   1  22
ATOM     22  O4  NAG d 902       8.245  -9.351  29.874  0.00  0.00    -0.390 OA
ATOM     23  H   NAG d 902       9.020  -8.864  30.194  0.00  0.00     0.210 HD
ENDBRANCH   1  22
BRANCH   6  24
ATOM     24  N2  NAG d 902       4.626 -12.357  31.452  0.00  0.00    -0.349 N 
ATOM     25  C7  NAG d 902       3.865 -12.764  32.595  0.00  0.00     0.214 C 
ATOM     26  O7  NAG d 902       4.316 -12.809  33.772  0.00  0.00    -0.274 OA
ATOM     27  C8  NAG d 902       2.427 -13.099  32.250  0.00  0.00     0.117 C 
ATOM     28  H   NAG d 902       4.227 -12.354  30.552  0.00  0.00     0.163 HD
ENDBRANCH   6  24
BRANCH   4  29
ATOM     29  C6  NAG d 902      10.273 -11.049  30.998  0.00  0.00     0.198 C 
BRANCH  29  30
ATOM     30  O6  NAG d 902      11.090 -12.001  31.731  0.00  0.00    -0.398 OA
ATOM     31  H   NAG d 902      10.999 -11.839  32.683  0.00  0.00     0.209 HD
ENDBRANCH  29  30
ENDBRANCH   4  29
BRANCH   3  32
ATOM     32  O1  NAG d 902       6.734 -14.104  32.507  0.00  0.00    -0.369 OA
ATOM     33  H   NAG d 902       6.084 -14.714  32.124  0.00  0.00     0.212 HD
ENDBRANCH   3  32
TORSDOF 11
ENDMDL
MODEL 17
REMARK VINA RESULT:      -6.7      2.020      3.478
REMARK  11 active torsions:
REMARK  status: ('A' for Active; 'I' for Inactive)
REMARK    1  A    between atoms: C4_1  and  O4_9 
REMARK    2  A    between atoms: O6_3  and  C6_15 
REMARK    3  A    between atoms: C1_4  and  O1_21 
REMARK    4  A    between atoms: O2_6  and  C2_13 
REMARK       I    between atoms: C7_7  and  N2_10 
REMARK    5  A    between atoms: O3_8  and  C1_12 
REMARK    6  A    between atoms: O3_8  and  C3_16 
REMARK    7  A    between atoms: N2_10  and  C2_20 
REMARK    8  A    between atoms: C5_11  and  C6_15 
REMARK    9  A    between atoms: C5_18  and  C6_25 
REMARK   10  A    between atoms: O3_22  and  C3_24 
REMARK   11  A    between atoms: O6A_23  and  C6_25 
ROOT
ATOM      1  C4  NAG d 902       6.499  -8.017  32.212  0.00  0.00     0.180 C 
ATOM      2  O5  NAG d 902       8.757  -7.326  31.468  0.00  0.00    -0.349 OA
ATOM      3  C1  NAG d 902       8.878  -8.496  30.543  0.00  0.00     0.282 C 
ATOM      4  C5  NAG d 902       7.334  -6.871  31.670  0.00  0.00     0.179 C 
ATOM      5  C3  NAG d 902       6.598  -9.222  31.241  0.00  0.00     0.183 C 
ATOM      6  C2  NAG d 902       8.057  -9.669  31.094  0.00  0.00     0.171 C 
ENDROOT
BRANCH   5   7
ATOM      7  O3  NAG d 902       5.827 -10.347  31.729  0.00  0.00    -0.348 OA
BRANCH   7   8
ATOM      8  C1  GCD d 901       4.756 -10.864  30.966  0.00  0.00     0.298 C 
ATOM      9  C2  GCD d 901       3.539  -9.995  31.035  0.00  0.00     0.206 C 
ATOM     10  C3  GCD d 901       2.463 -10.699  30.134  0.00  0.00     0.177 C 
ATOM     11  C4  GCD d 901       2.935 -11.369  28.828  0.00  0.00     0.051 C 
ATOM     12  C5  GCD d 901       4.246 -11.344  28.508  0.00  0.00     0.144 C 
ATOM     13  O5  GCD d 901       5.237 -10.862  29.535  0.00  0.00    -0.311 OA
BRANCH   9  14
ATOM     14  O2  GCD d 901       3.051  -9.853  32.408  0.00  0.00    -0.388 OA
ATOM     15  H   GCD d 901       3.123 -10.705  32.866  0.00  0.00     0.210 HD
ENDBRANCH   9  14
BRANCH  10  16
ATOM     16  O3  GCD d 901       1.305  -9.885  30.146  0.00  0.00    -0.389 OA
ATOM     17  H   GCD d 901       0.786 -10.073  30.943  0.00  0.00     0.210 HD
ENDBRANCH  10  16
BRANCH  12  18
ATOM     18  C6  GCD d 901       4.824 -11.960  27.259  0.00  0.00     0.200 C 
ATOM     19  O6B GCD d 901       3.945 -12.030  26.325  0.00  0.00    -0.645 OA
BRANCH  18  20
ATOM     20  O6A GCD d 901       5.965 -12.549  27.382  0.00  0.00    -0.771 OA
ATOM     21  H   GCD d 901       6.686 -12.097  27.773  0.00  0.00     0.167 HD
ENDBRANCH  18  20
ENDBRANCH  12  18
ENDBRANCH   7   8
ENDBRANCH   5   7
BRANCH   1  22
ATOM     22  O4  NAG d 902       5.132  -7.571  32.381  0.00  0.00    -0.390 OA
ATOM     23  H   NAG d 902       5.118  -6.609  32.498  0.00  0.00     0.210 HD
ENDBRANCH   1  22
BRANCH   6  24
ATOM     24  N2  NAG d 902       8.101 -10.891  30.193  0.00  0.00    -0.349 N 
ATOM     25  C7  NAG d 902       8.636 -12.105  30.730  0.00  0.00     0.214 C 
ATOM     26  O7  NAG d 902       9.093 -12.226  31.900  0.00  0.00    -0.274 OA
ATOM     27  C8  NAG d 902       8.559 -13.261  29.752  0.00  0.00     0.117 C 
ATOM     28  H   NAG d 902       7.770 -10.849  29.266  0.00  0.00     0.163 HD
ENDBRANCH   6  24
BRANCH   4  29
ATOM     29  C6  NAG d 902       7.275  -5.672  32.617  0.00  0.00     0.198 C 
BRANCH  29  30
ATOM     30  O6  NAG d 902       7.073  -6.032  34.010  0.00  0.00    -0.398 OA
ATOM     31  H   NAG d 902       6.127  -6.176  34.172  0.00  0.00     0.209 HD
ENDBRANCH  29  30
ENDBRANCH   4  29
BRANCH   3  32
ATOM     32  O1  NAG d 902      10.236  -8.888  30.377  0.00  0.00    -0.369 OA
ATOM     33  H   NAG d 902      10.553  -8.593  29.508  0.00  0.00     0.212 HD
ENDBRANCH   3  32
TORSDOF 11
ENDMDL
MODEL 18
REMARK VINA RESULT:      -6.7      2.668      5.775
REMARK  11 active torsions:
REMARK  status: ('A' for Active; 'I' for Inactive)
REMARK    1  A    between atoms: C4_1  and  O4_9 
REMARK    2  A    between atoms: O6_3  and  C6_15 
REMARK    3  A    between atoms: C1_4  and  O1_21 
REMARK    4  A    between atoms: O2_6  and  C2_13 
REMARK       I    between atoms: C7_7  and  N2_10 
REMARK    5  A    between atoms: O3_8  and  C1_12 
REMARK    6  A    between atoms: O3_8  and  C3_16 
REMARK    7  A    between atoms: N2_10  and  C2_20 
REMARK    8  A    between atoms: C5_11  and  C6_15 
REMARK    9  A    between atoms: C5_18  and  C6_25 
REMARK   10  A    between atoms: O3_22  and  C3_24 
REMARK   11  A    between atoms: O6A_23  and  C6_25 
ROOT
ATOM      1  C4  NAG d 902       4.476  -7.940  31.989  0.00  0.00     0.180 C 
ATOM      2  O5  NAG d 902       4.169  -5.692  30.997  0.00  0.00    -0.349 OA
ATOM      3  C1  NAG d 902       5.469  -5.771  30.260  0.00  0.00     0.282 C 
ATOM      4  C5  NAG d 902       3.527  -7.039  31.220  0.00  0.00     0.179 C 
ATOM      5  C3  NAG d 902       5.816  -8.049  31.213  0.00  0.00     0.183 C 
ATOM      6  C2  NAG d 902       6.445  -6.661  31.041  0.00  0.00     0.171 C 
ENDROOT
BRANCH   5   7
ATOM      7  O3  NAG d 902       6.759  -8.889  31.921  0.00  0.00    -0.348 OA
BRANCH   7   8
ATOM      8  C1  GCD d 901       7.049 -10.190  31.452  0.00  0.00     0.298 C 
ATOM      9  C2  GCD d 901       8.521 -10.456  31.388  0.00  0.00     0.206 C 
ATOM     10  C3  GCD d 901       8.664 -11.928  30.864  0.00  0.00     0.177 C 
ATOM     11  C4  GCD d 901       7.649 -12.978  31.362  0.00  0.00     0.051 C 
ATOM     12  C5  GCD d 901       6.670 -12.600  32.210  0.00  0.00     0.144 C 
ATOM     13  O5  GCD d 901       6.459 -11.133  32.473  0.00  0.00    -0.311 OA
BRANCH   9  14
ATOM     14  O2  GCD d 901       9.202  -9.520  30.491  0.00  0.00    -0.388 OA
ATOM     15  H   GCD d 901       9.479  -8.736  30.991  0.00  0.00     0.210 HD
ENDBRANCH   9  14
BRANCH  10  16
ATOM     16  O3  GCD d 901      10.046 -12.230  30.824  0.00  0.00    -0.389 OA
ATOM     17  H   GCD d 901      10.445 -11.816  30.043  0.00  0.00     0.210 HD
ENDBRANCH  10  16
BRANCH  12  18
ATOM     18  C6  GCD d 901       5.624 -13.535  32.765  0.00  0.00     0.200 C 
ATOM     19  O6B GCD d 901       4.861 -12.933  33.605  0.00  0.00    -0.645 OA
BRANCH  18  20
ATOM     20  O6A GCD d 901       5.803 -14.794  32.548  0.00  0.00    -0.771 OA
ATOM     21  H   GCD d 901       6.654 -15.114  32.324  0.00  0.00     0.167 HD
ENDBRANCH  18  20
ENDBRANCH  12  18
ENDBRANCH   7   8
ENDBRANCH   5   7
BRANCH   1  22
ATOM     22  O4  NAG d 902       3.856  -9.234  32.177  0.00  0.00    -0.390 OA
ATOM     23  H   NAG d 902       2.926  -9.114  32.425  0.00  0.00     0.210 HD
ENDBRANCH   1  22
BRANCH   6  24
ATOM     24  N2  NAG d 902       7.784  -6.821  30.341  0.00  0.00    -0.349 N 
ATOM     25  C7  NAG d 902       8.841  -5.924  30.698  0.00  0.00     0.214 C 
ATOM     26  O7  NAG d 902       8.733  -4.996  31.546  0.00  0.00    -0.274 OA
ATOM     27  C8  NAG d 902      10.138  -6.234  29.977  0.00  0.00     0.117 C 
ATOM     28  H   NAG d 902       7.919  -7.520  29.661  0.00  0.00     0.163 HD
ENDBRANCH   6  24
BRANCH   4  29
ATOM     29  C6  NAG d 902       2.203  -6.893  31.970  0.00  0.00     0.198 C 
BRANCH  29  30
ATOM     30  O6  NAG d 902       2.345  -6.869  33.416  0.00  0.00    -0.398 OA
ATOM     31  H   NAG d 902       3.191  -7.274  33.664  0.00  0.00     0.209 HD
ENDBRANCH  29  30
ENDBRANCH   4  29
BRANCH   3  32
ATOM     32  O1  NAG d 902       6.035  -4.481  30.067  0.00  0.00    -0.369 OA
ATOM     33  H   NAG d 902       5.819  -3.916  30.827  0.00  0.00     0.212 HD
ENDBRANCH   3  32
TORSDOF 11
ENDMDL
MODEL 19
REMARK VINA RESULT:      -6.6      2.581      6.387
REMARK  11 active torsions:
REMARK  status: ('A' for Active; 'I' for Inactive)
REMARK    1  A    between atoms: C4_1  and  O4_9 
REMARK    2  A    between atoms: O6_3  and  C6_15 
REMARK    3  A    between atoms: C1_4  and  O1_21 
REMARK    4  A    between atoms: O2_6  and  C2_13 
REMARK       I    between atoms: C7_7  and  N2_10 
REMARK    5  A    between atoms: O3_8  and  C1_12 
REMARK    6  A    between atoms: O3_8  and  C3_16 
REMARK    7  A    between atoms: N2_10  and  C2_20 
REMARK    8  A    between atoms: C5_11  and  C6_15 
REMARK    9  A    between atoms: C5_18  and  C6_25 
REMARK   10  A    between atoms: O3_22  and  C3_24 
REMARK   11  A    between atoms: O6A_23  and  C6_25 
ROOT
ATOM      1  C4  NAG d 902       4.073 -10.091  29.189  0.00  0.00     0.180 C 
ATOM      2  O5  NAG d 902       1.887  -8.948  28.968  0.00  0.00    -0.349 OA
ATOM      3  C1  NAG d 902       1.414  -9.463  30.291  0.00  0.00     0.282 C 
ATOM      4  C5  NAG d 902       3.383  -8.770  28.898  0.00  0.00     0.179 C 
ATOM      5  C3  NAG d 902       3.608 -10.614  30.573  0.00  0.00     0.183 C 
ATOM      6  C2  NAG d 902       2.087 -10.811  30.584  0.00  0.00     0.171 C 
ENDROOT
BRANCH   5   7
ATOM      7  O3  NAG d 902       4.231 -11.884  30.885  0.00  0.00    -0.348 OA
BRANCH   7   8
ATOM      8  C1  GCD d 901       5.375 -11.935  31.712  0.00  0.00     0.298 C 
ATOM      9  C2  GCD d 901       5.303 -13.046  32.713  0.00  0.00     0.206 C 
ATOM     10  C3  GCD d 901       6.640 -12.966  33.531  0.00  0.00     0.177 C 
ATOM     11  C4  GCD d 901       7.935 -12.610  32.774  0.00  0.00     0.051 C 
ATOM     12  C5  GCD d 901       7.880 -12.364  31.448  0.00  0.00     0.144 C 
ATOM     13  O5  GCD d 901       6.533 -12.227  30.789  0.00  0.00    -0.311 OA
BRANCH   9  14
ATOM     14  O2  GCD d 901       4.146 -12.904  33.599  0.00  0.00    -0.388 OA
ATOM     15  H   GCD d 901       3.550 -13.660  33.476  0.00  0.00     0.210 HD
ENDBRANCH   9  14
BRANCH  10  16
ATOM     16  O3  GCD d 901       6.625 -14.028  34.468  0.00  0.00    -0.389 OA
ATOM     17  H   GCD d 901       5.988 -13.829  35.172  0.00  0.00     0.210 HD
ENDBRANCH  10  16
BRANCH  12  18
ATOM     18  C6  GCD d 901       9.077 -12.011  30.603  0.00  0.00     0.200 C 
ATOM     19  O6B GCD d 901       9.000 -10.804  30.169  0.00  0.00    -0.645 OA
BRANCH  18  20
ATOM     20  O6A GCD d 901       9.826 -12.990  30.226  0.00  0.00    -0.771 OA
ATOM     21  H   GCD d 901       9.524 -13.585  29.568  0.00  0.00     0.167 HD
ENDBRANCH  18  20
ENDBRANCH  12  18
ENDBRANCH   7   8
ENDBRANCH   5   7
BRANCH   1  22
ATOM     22  O4  NAG d 902       5.507  -9.900  29.139  0.00  0.00    -0.390 OA
ATOM     23  H   NAG d 902       5.707  -9.080  28.662  0.00  0.00     0.210 HD
ENDBRANCH   1  22
BRANCH   6  24
ATOM     24  N2  NAG d 902       1.684 -11.388  31.931  0.00  0.00    -0.349 N 
ATOM     25  C7  NAG d 902       1.763 -10.537  33.079  0.00  0.00     0.214 C 
ATOM     26  O7  NAG d 902       2.162  -9.340  33.053  0.00  0.00    -0.274 OA
ATOM     27  C8  NAG d 902       1.270 -11.213  34.343  0.00  0.00     0.117 C 
ATOM     28  H   NAG d 902       1.377 -12.321  32.010  0.00  0.00     0.163 HD
ENDBRANCH   6  24
BRANCH   4  29
ATOM     29  C6  NAG d 902       3.804  -8.237  27.529  0.00  0.00     0.198 C 
BRANCH  29  30
ATOM     30  O6  NAG d 902       4.236  -9.270  26.603  0.00  0.00    -0.398 OA
ATOM     31  H   NAG d 902       4.700  -8.861  25.855  0.00  0.00     0.209 HD
ENDBRANCH  29  30
ENDBRANCH   4  29
BRANCH   3  32
ATOM     32  O1  NAG d 902      -0.000  -9.610  30.315  0.00  0.00    -0.369 OA
ATOM     33  H   NAG d 902      -0.383  -8.957  30.922  0.00  0.00     0.212 HD
ENDBRANCH   3  32
TORSDOF 11
ENDMDL
MODEL 20
REMARK VINA RESULT:      -6.6      2.615      6.646
REMARK  11 active torsions:
REMARK  status: ('A' for Active; 'I' for Inactive)
REMARK    1  A    between atoms: C4_1  and  O4_9 
REMARK    2  A    between atoms: O6_3  and  C6_15 
REMARK    3  A    between atoms: C1_4  and  O1_21 
REMARK    4  A    between atoms: O2_6  and  C2_13 
REMARK       I    between atoms: C7_7  and  N2_10 
REMARK    5  A    between atoms: O3_8  and  C1_12 
REMARK    6  A    between atoms: O3_8  and  C3_16 
REMARK    7  A    between atoms: N2_10  and  C2_20 
REMARK    8  A    between atoms: C5_11  and  C6_15 
REMARK    9  A    between atoms: C5_18  and  C6_25 
REMARK   10  A    between atoms: O3_22  and  C3_24 
REMARK   11  A    between atoms: O6A_23  and  C6_25 
ROOT
ATOM      1  C4  NAG d 902       4.776  -8.197  31.365  0.00  0.00     0.180 C 
ATOM      2  O5  NAG d 902       2.329  -8.476  31.106  0.00  0.00    -0.349 OA
ATOM      3  C1  NAG d 902       2.491  -9.767  30.367  0.00  0.00     0.282 C 
ATOM      4  C5  NAG d 902       3.441  -8.207  32.088  0.00  0.00     0.179 C 
ATOM      5  C3  NAG d 902       4.962  -9.546  30.621  0.00  0.00     0.183 C 
ATOM      6  C2  NAG d 902       3.827  -9.758  29.611  0.00  0.00     0.171 C 
ENDROOT
BRANCH   5   7
ATOM      7  O3  NAG d 902       6.218  -9.574  29.901  0.00  0.00    -0.348 OA
BRANCH   7   8
ATOM      8  C1  GCD d 901       7.326 -10.278  30.425  0.00  0.00     0.298 C 
ATOM      9  C2  GCD d 901       7.580 -11.561  29.697  0.00  0.00     0.206 C 
ATOM     10  C3  GCD d 901       8.833 -12.201  30.390  0.00  0.00     0.177 C 
ATOM     11  C4  GCD d 901       9.970 -11.263  30.846  0.00  0.00     0.051 C 
ATOM     12  C5  GCD d 901       9.848  -9.933  30.651  0.00  0.00     0.144 C 
ATOM     13  O5  GCD d 901       8.521  -9.382  30.201  0.00  0.00    -0.311 OA
BRANCH   9  14
ATOM     14  O2  GCD d 901       6.430 -12.463  29.773  0.00  0.00    -0.388 OA
ATOM     15  H   GCD d 901       5.728 -12.050  30.301  0.00  0.00     0.210 HD
ENDBRANCH   9  14
BRANCH  10  16
ATOM     16  O3  GCD d 901       9.127 -13.404  29.703  0.00  0.00    -0.389 OA
ATOM     17  H   GCD d 901       8.372 -13.651  29.148  0.00  0.00     0.210 HD
ENDBRANCH  10  16
BRANCH  12  18
ATOM     18  C6  GCD d 901      10.891  -8.921  31.050  0.00  0.00     0.200 C 
ATOM     19  O6B GCD d 901      10.939  -7.947  30.213  0.00  0.00    -0.645 OA
BRANCH  18  20
ATOM     20  O6A GCD d 901      11.729  -9.285  31.961  0.00  0.00    -0.771 OA
ATOM     21  H   GCD d 901      12.650  -9.238  31.796  0.00  0.00     0.167 HD
ENDBRANCH  18  20
ENDBRANCH  12  18
ENDBRANCH   7   8
ENDBRANCH   5   7
BRANCH   1  22
ATOM     22  O4  NAG d 902       5.834  -7.960  32.322  0.00  0.00    -0.390 OA
ATOM     23  H   NAG d 902       6.645  -8.401  32.025  0.00  0.00     0.210 HD
ENDBRANCH   1  22
BRANCH   6  24
ATOM     24  N2  NAG d 902       4.085 -11.052  28.859  0.00  0.00    -0.349 N 
ATOM     25  C7  NAG d 902       4.237 -10.984  27.437  0.00  0.00     0.214 C 
ATOM     26  O7  NAG d 902       4.154  -9.922  26.761  0.00  0.00    -0.274 OA
ATOM     27  C8  NAG d 902       4.556 -12.331  26.818  0.00  0.00     0.117 C 
ATOM     28  H   NAG d 902       4.146 -11.912  29.335  0.00  0.00     0.163 HD
ENDBRANCH   6  24
BRANCH   4  29
ATOM     29  C6  NAG d 902       3.217  -6.881  32.815  0.00  0.00     0.198 C 
BRANCH  29  30
ATOM     30  O6  NAG d 902       1.834  -6.647  33.197  0.00  0.00    -0.398 OA
ATOM     31  H   NAG d 902       1.659  -7.070  34.052  0.00  0.00     0.209 HD
ENDBRANCH  29  30
ENDBRANCH   4  29
BRANCH   3  32
ATOM     32  O1  NAG d 902       1.419  -9.983  29.457  0.00  0.00    -0.369 OA
ATOM     33  H   NAG d 902       1.125  -9.131  29.096  0.00  0.00     0.212 HD
ENDBRANCH   3  32
TORSDOF 11
ENDMDL
MODEL 21
REMARK VINA RESULT:      -6.6      3.653      5.912
REMARK  11 active torsions:
REMARK  status: ('A' for Active; 'I' for Inactive)
REMARK    1  A    between atoms: C4_1  and  O4_9 
REMARK    2  A    between atoms: O6_3  and  C6_15 
REMARK    3  A    between atoms: C1_4  and  O1_21 
REMARK    4  A    between atoms: O2_6  and  C2_13 
REMARK       I    between atoms: C7_7  and  N2_10 
REMARK    5  A    between atoms: O3_8  and  C1_12 
REMARK    6  A    between atoms: O3_8  and  C3_16 
REMARK    7  A    between atoms: N2_10  and  C2_20 
REMARK    8  A    between atoms: C5_11  and  C6_15 
REMARK    9  A    between atoms: C5_18  and  C6_25 
REMARK   10  A    between atoms: O3_22  and  C3_24 
REMARK   11  A    between atoms: O6A_23  and  C6_25 
ROOT
ATOM      1  C4  NAG d 902       5.061 -12.022  31.896  0.00  0.00     0.180 C 
ATOM      2  O5  NAG d 902       3.758 -12.901  33.810  0.00  0.00    -0.349 OA
ATOM      3  C1  NAG d 902       2.461 -12.457  33.210  0.00  0.00     0.282 C 
ATOM      4  C5  NAG d 902       4.809 -13.230  32.780  0.00  0.00     0.179 C 
ATOM      5  C3  NAG d 902       3.723 -11.577  31.249  0.00  0.00     0.183 C 
ATOM      6  C2  NAG d 902       2.700 -11.221  32.334  0.00  0.00     0.171 C 
ENDROOT
BRANCH   5   7
ATOM      7  O3  NAG d 902       3.915 -10.413  30.408  0.00  0.00    -0.348 OA
BRANCH   7   8
ATOM      8  C1  GCD d 901       3.640 -10.479  29.024  0.00  0.00     0.298 C 
ATOM      9  C2  GCD d 901       4.402 -11.574  28.345  0.00  0.00     0.206 C 
ATOM     10  C3  GCD d 901       3.976 -11.515  26.836  0.00  0.00     0.177 C 
ATOM     11  C4  GCD d 901       2.502 -11.200  26.509  0.00  0.00     0.051 C 
ATOM     12  C5  GCD d 901       1.635 -10.972  27.518  0.00  0.00     0.144 C 
ATOM     13  O5  GCD d 901       2.171 -10.812  28.916  0.00  0.00    -0.311 OA
BRANCH   9  14
ATOM     14  O2  GCD d 901       5.849 -11.393  28.481  0.00  0.00    -0.388 OA
ATOM     15  H   GCD d 901       6.188 -10.910  27.711  0.00  0.00     0.210 HD
ENDBRANCH   9  14
BRANCH  10  16
ATOM     16  O3  GCD d 901       4.652 -12.563  26.165  0.00  0.00    -0.389 OA
ATOM     17  H   GCD d 901       4.469 -13.404  26.612  0.00  0.00     0.210 HD
ENDBRANCH  10  16
BRANCH  12  18
ATOM     18  C6  GCD d 901       0.173 -10.658  27.322  0.00  0.00     0.200 C 
ATOM     19  O6B GCD d 901      -0.198 -10.903  26.117  0.00  0.00    -0.645 OA
BRANCH  18  20
ATOM     20  O6A GCD d 901      -0.398  -9.970  28.251  0.00  0.00    -0.771 OA
ATOM     21  H   GCD d 901      -0.451  -9.038  28.179  0.00  0.00     0.167 HD
ENDBRANCH  18  20
ENDBRANCH  12  18
ENDBRANCH   7   8
ENDBRANCH   5   7
BRANCH   1  22
ATOM     22  O4  NAG d 902       6.056 -12.360  30.901  0.00  0.00    -0.390 OA
ATOM     23  H   NAG d 902       5.650 -12.346  30.020  0.00  0.00     0.210 HD
ENDBRANCH   1  22
BRANCH   6  24
ATOM     24  N2  NAG d 902       1.432 -10.725  31.659  0.00  0.00    -0.349 N 
ATOM     25  C7  NAG d 902       0.927  -9.440  32.038  0.00  0.00     0.214 C 
ATOM     26  O7  NAG d 902       1.453  -8.696  32.910  0.00  0.00    -0.274 OA
ATOM     27  C8  NAG d 902      -0.300  -9.038  31.243  0.00  0.00     0.117 C 
ATOM     28  H   NAG d 902       0.973 -11.271  30.981  0.00  0.00     0.163 HD
ENDBRANCH   6  24
BRANCH   4  29
ATOM     29  C6  NAG d 902       6.106 -13.682  33.451  0.00  0.00     0.198 C 
BRANCH  29  30
ATOM     30  O6  NAG d 902       6.957 -12.586  33.883  0.00  0.00    -0.398 OA
ATOM     31  H   NAG d 902       6.422 -11.784  33.990  0.00  0.00     0.209 HD
ENDBRANCH  29  30
ENDBRANCH   4  29
BRANCH   3  32
ATOM     32  O1  NAG d 902       1.498 -12.163  34.215  0.00  0.00    -0.369 OA
ATOM     33  H   NAG d 902       0.785 -11.627  33.833  0.00  0.00     0.212 HD
ENDBRANCH   3  32
TORSDOF 11
ENDMDL
MODEL 22
REMARK VINA RESULT:      -6.6      2.866      4.747
REMARK  11 active torsions:
REMARK  status: ('A' for Active; 'I' for Inactive)
REMARK    1  A    between atoms: C4_1  and  O4_9 
REMARK    2  A    between atoms: O6_3  and  C6_15 
REMARK    3  A    between atoms: C1_4  and  O1_21 
REMARK    4  A    between atoms: O2_6  and  C2_13 
REMARK       I    between atoms: C7_7  and  N2_10 
REMARK    5  A    between atoms: O3_8  and  C1_12 
REMARK    6  A    between atoms: O3_8  and  C3_16 
REMARK    7  A    between atoms: N2_10  and  C2_20 
REMARK    8  A    between atoms: C5_11  and  C6_15 
REMARK    9  A    between atoms: C5_18  and  C6_25 
REMARK   10  A    between atoms: O3_22  and  C3_24 
REMARK   11  A    between atoms: O6A_23  and  C6_25 
ROOT
ATOM      1  C4  NAG d 902       6.699 -12.306  28.687  0.00  0.00     0.180 C 
ATOM      2  O5  NAG d 902       7.858 -12.993  30.764  0.00  0.00    -0.349 OA
ATOM      3  C1  NAG d 902       7.177 -11.932  31.569  0.00  0.00     0.282 C 
ATOM      4  C5  NAG d 902       7.036 -13.475  29.595  0.00  0.00     0.179 C 
ATOM      5  C3  NAG d 902       5.967 -11.215  29.511  0.00  0.00     0.183 C 
ATOM      6  C2  NAG d 902       6.854 -10.734  30.666  0.00  0.00     0.171 C 
ENDROOT
BRANCH   5   7
ATOM      7  O3  NAG d 902       5.640 -10.071  28.685  0.00  0.00    -0.348 OA
BRANCH   7   8
ATOM      8  C1  GCD d 901       4.291  -9.717  28.455  0.00  0.00     0.298 C 
ATOM      9  C2  GCD d 901       4.163  -8.501  27.591  0.00  0.00     0.206 C 
ATOM     10  C3  GCD d 901       2.621  -8.258  27.429  0.00  0.00     0.177 C 
ATOM     11  C4  GCD d 901       1.703  -9.489  27.277  0.00  0.00     0.051 C 
ATOM     12  C5  GCD d 901       2.244 -10.724  27.305  0.00  0.00     0.144 C 
ATOM     13  O5  GCD d 901       3.689 -10.878  27.701  0.00  0.00    -0.311 OA
BRANCH   9  14
ATOM     14  O2  GCD d 901       4.809  -7.336  28.196  0.00  0.00    -0.388 OA
ATOM     15  H   GCD d 901       5.771  -7.457  28.185  0.00  0.00     0.210 HD
ENDBRANCH   9  14
BRANCH  10  16
ATOM     16  O3  GCD d 901       2.458  -7.133  26.585  0.00  0.00    -0.389 OA
ATOM     17  H   GCD d 901       2.938  -7.279  25.755  0.00  0.00     0.210 HD
ENDBRANCH  10  16
BRANCH  12  18
ATOM     18  C6  GCD d 901       1.451 -11.999  27.164  0.00  0.00     0.200 C 
ATOM     19  O6B GCD d 901       2.180 -12.953  26.708  0.00  0.00    -0.645 OA
BRANCH  18  20
ATOM     20  O6A GCD d 901       0.168 -11.891  27.248  0.00  0.00    -0.771 OA
ATOM     21  H   GCD d 901      -0.244 -11.063  27.099  0.00  0.00     0.167 HD
ENDBRANCH  18  20
ENDBRANCH  12  18
ENDBRANCH   7   8
ENDBRANCH   5   7
BRANCH   1  22
ATOM     22  O4  NAG d 902       5.893 -12.779  27.582  0.00  0.00    -0.390 OA
ATOM     23  H   NAG d 902       5.059 -13.139  27.921  0.00  0.00     0.210 HD
ENDBRANCH   1  22
BRANCH   6  24
ATOM     24  N2  NAG d 902       6.129  -9.621  31.403  0.00  0.00    -0.349 N 
ATOM     25  C7  NAG d 902       6.758  -8.337  31.469  0.00  0.00     0.214 C 
ATOM     26  O7  NAG d 902       7.887  -8.070  30.971  0.00  0.00    -0.274 OA
ATOM     27  C8  NAG d 902       5.901  -7.302  32.171  0.00  0.00     0.117 C 
ATOM     28  H   NAG d 902       5.252  -9.779  31.822  0.00  0.00     0.163 HD
ENDBRANCH   6  24
BRANCH   4  29
ATOM     29  C6  NAG d 902       7.779 -14.560  28.817  0.00  0.00     0.198 C 
BRANCH  29  30
ATOM     30  O6  NAG d 902       8.489 -14.065  27.650  0.00  0.00    -0.398 OA
ATOM     31  H   NAG d 902       8.163 -13.179  27.425  0.00  0.00     0.209 HD
ENDBRANCH  29  30
ENDBRANCH   4  29
BRANCH   3  32
ATOM     32  O1  NAG d 902       7.985 -11.512  32.663  0.00  0.00    -0.369 OA
ATOM     33  H   NAG d 902       8.921 -11.642  32.442  0.00  0.00     0.212 HD
ENDBRANCH   3  32
TORSDOF 11
ENDMDL
MODEL 23
REMARK VINA RESULT:      -6.6      2.352      4.961
REMARK  11 active torsions:
REMARK  status: ('A' for Active; 'I' for Inactive)
REMARK    1  A    between atoms: C4_1  and  O4_9 
REMARK    2  A    between atoms: O6_3  and  C6_15 
REMARK    3  A    between atoms: C1_4  and  O1_21 
REMARK    4  A    between atoms: O2_6  and  C2_13 
REMARK       I    between atoms: C7_7  and  N2_10 
REMARK    5  A    between atoms: O3_8  and  C1_12 
REMARK    6  A    between atoms: O3_8  and  C3_16 
REMARK    7  A    between atoms: N2_10  and  C2_20 
REMARK    8  A    between atoms: C5_11  and  C6_15 
REMARK    9  A    between atoms: C5_18  and  C6_25 
REMARK   10  A    between atoms: O3_22  and  C3_24 
REMARK   11  A    between atoms: O6A_23  and  C6_25 
ROOT
ATOM      1  C4  NAG d 902       6.467  -8.895  29.390  0.00  0.00     0.180 C 
ATOM      2  O5  NAG d 902       4.892  -7.274  28.379  0.00  0.00    -0.349 OA
ATOM      3  C1  NAG d 902       3.751  -8.240  28.456  0.00  0.00     0.282 C 
ATOM      4  C5  NAG d 902       5.921  -7.480  29.461  0.00  0.00     0.179 C 
ATOM      5  C3  NAG d 902       5.290  -9.900  29.499  0.00  0.00     0.183 C 
ATOM      6  C2  NAG d 902       4.289  -9.674  28.361  0.00  0.00     0.171 C 
ENDROOT
BRANCH   5   7
ATOM      7  O3  NAG d 902       5.765 -11.266  29.420  0.00  0.00    -0.348 OA
BRANCH   7   8
ATOM      8  C1  GCD d 901       5.683 -12.118  30.545  0.00  0.00     0.298 C 
ATOM      9  C2  GCD d 901       6.729 -11.807  31.569  0.00  0.00     0.206 C 
ATOM     10  C3  GCD d 901       6.491 -12.824  32.741  0.00  0.00     0.177 C 
ATOM     11  C4  GCD d 901       5.036 -13.173  33.115  0.00  0.00     0.051 C 
ATOM     12  C5  GCD d 901       4.022 -12.612  32.423  0.00  0.00     0.144 C 
ATOM     13  O5  GCD d 901       4.337 -11.839  31.169  0.00  0.00    -0.311 OA
BRANCH   9  14
ATOM     14  O2  GCD d 901       8.081 -11.953  31.026  0.00  0.00    -0.388 OA
ATOM     15  H   GCD d 901       8.406 -11.087  30.731  0.00  0.00     0.210 HD
ENDBRANCH   9  14
BRANCH  10  16
ATOM     16  O3  GCD d 901       7.442 -12.537  33.749  0.00  0.00    -0.389 OA
ATOM     17  H   GCD d 901       7.553 -13.314  34.319  0.00  0.00     0.210 HD
ENDBRANCH  10  16
BRANCH  12  18
ATOM     18  C6  GCD d 901       2.563 -12.873  32.698  0.00  0.00     0.200 C 
ATOM     19  O6B GCD d 901       2.180 -12.282  33.773  0.00  0.00    -0.645 OA
BRANCH  18  20
ATOM     20  O6A GCD d 901       2.008 -13.817  32.018  0.00  0.00    -0.771 OA
ATOM     21  H   GCD d 901       2.512 -14.309  31.400  0.00  0.00     0.167 HD
ENDBRANCH  18  20
ENDBRANCH  12  18
ENDBRANCH   7   8
ENDBRANCH   5   7
BRANCH   1  22
ATOM     22  O4  NAG d 902       7.438  -9.084  30.447  0.00  0.00    -0.390 OA
ATOM     23  H   NAG d 902       8.245  -9.474  30.078  0.00  0.00     0.210 HD
ENDBRANCH   1  22
BRANCH   6  24
ATOM     24  N2  NAG d 902       3.193 -10.720  28.465  0.00  0.00    -0.349 N 
ATOM     25  C7  NAG d 902       3.001 -11.606  27.356  0.00  0.00     0.214 C 
ATOM     26  O7  NAG d 902       3.671 -11.566  26.288  0.00  0.00    -0.274 OA
ATOM     27  C8  NAG d 902       1.925 -12.643  27.616  0.00  0.00     0.117 C 
ATOM     28  H   NAG d 902       2.631 -10.788  29.271  0.00  0.00     0.163 HD
ENDBRANCH   6  24
BRANCH   4  29
ATOM     29  C6  NAG d 902       7.055  -6.463  29.334  0.00  0.00     0.198 C 
BRANCH  29  30
ATOM     30  O6  NAG d 902       6.870  -5.507  28.255  0.00  0.00    -0.398 OA
ATOM     31  H   NAG d 902       6.960  -4.606  28.603  0.00  0.00     0.209 HD
ENDBRANCH  29  30
ENDBRANCH   4  29
BRANCH   3  32
ATOM     32  O1  NAG d 902       2.802  -8.006  27.422  0.00  0.00    -0.369 OA
ATOM     33  H   NAG d 902       2.142  -7.365  27.729  0.00  0.00     0.212 HD
ENDBRANCH   3  32
TORSDOF 11
ENDMDL
MODEL 24
REMARK VINA RESULT:      -6.6      2.457      6.072
REMARK  11 active torsions:
REMARK  status: ('A' for Active; 'I' for Inactive)
REMARK    1  A    between atoms: C4_1  and  O4_9 
REMARK    2  A    between atoms: O6_3  and  C6_15 
REMARK    3  A    between atoms: C1_4  and  O1_21 
REMARK    4  A    between atoms: O2_6  and  C2_13 
REMARK       I    between atoms: C7_7  and  N2_10 
REMARK    5  A    between atoms: O3_8  and  C1_12 
REMARK    6  A    between atoms: O3_8  and  C3_16 
REMARK    7  A    between atoms: N2_10  and  C2_20 
REMARK    8  A    between atoms: C5_11  and  C6_15 
REMARK    9  A    between atoms: C5_18  and  C6_25 
REMARK   10  A    between atoms: O3_22  and  C3_24 
REMARK   11  A    between atoms: O6A_23  and  C6_25 
ROOT
ATOM      1  C4  NAG d 902       2.318 -10.032  31.119  0.00  0.00     0.180 C 
ATOM      2  O5  NAG d 902       1.116 -11.408  32.790  0.00  0.00    -0.349 OA
ATOM      3  C1  NAG d 902       2.260 -12.365  32.917  0.00  0.00     0.282 C 
ATOM      4  C5  NAG d 902       1.546 -10.010  32.426  0.00  0.00     0.179 C 
ATOM      5  C3  NAG d 902       3.523 -11.000  31.257  0.00  0.00     0.183 C 
ATOM      6  C2  NAG d 902       3.034 -12.414  31.593  0.00  0.00     0.171 C 
ENDROOT
BRANCH   5   7
ATOM      7  O3  NAG d 902       4.281 -11.064  30.024  0.00  0.00    -0.348 OA
BRANCH   7   8
ATOM      8  C1  GCD d 901       5.685 -10.908  30.040  0.00  0.00     0.298 C 
ATOM      9  C2  GCD d 901       6.184 -10.388  31.352  0.00  0.00     0.206 C 
ATOM     10  C3  GCD d 901       7.743 -10.287  31.203  0.00  0.00     0.177 C 
ATOM     11  C4  GCD d 901       8.471 -11.396  30.415  0.00  0.00     0.051 C 
ATOM     12  C5  GCD d 901       7.753 -12.400  29.870  0.00  0.00     0.144 C 
ATOM     13  O5  GCD d 901       6.251 -12.296  29.854  0.00  0.00    -0.311 OA
BRANCH   9  14
ATOM     14  O2  GCD d 901       5.609  -9.080  31.670  0.00  0.00    -0.388 OA
ATOM     15  H   GCD d 901       6.218  -8.591  32.245  0.00  0.00     0.210 HD
ENDBRANCH   9  14
BRANCH  10  16
ATOM     16  O3  GCD d 901       8.257  -9.831  32.440  0.00  0.00    -0.389 OA
ATOM     17  H   GCD d 901       8.647 -10.577  32.923  0.00  0.00     0.210 HD
ENDBRANCH  10  16
BRANCH  12  18
ATOM     18  C6  GCD d 901       8.352 -13.538  29.083  0.00  0.00     0.200 C 
ATOM     19  O6B GCD d 901       9.552 -13.789  29.469  0.00  0.00    -0.645 OA
BRANCH  18  20
ATOM     20  O6A GCD d 901       7.724 -13.895  28.015  0.00  0.00    -0.771 OA
ATOM     21  H   GCD d 901       8.182 -14.334  27.326  0.00  0.00     0.167 HD
ENDBRANCH  18  20
ENDBRANCH  12  18
ENDBRANCH   7   8
ENDBRANCH   5   7
BRANCH   1  22
ATOM     22  O4  NAG d 902       2.742  -8.686  30.795  0.00  0.00    -0.390 OA
ATOM     23  H   NAG d 902       2.312  -8.401  29.974  0.00  0.00     0.210 HD
ENDBRANCH   1  22
BRANCH   6  24
ATOM     24  N2  NAG d 902       4.236 -13.340  31.649  0.00  0.00    -0.349 N 
ATOM     25  C7  NAG d 902       5.003 -13.376  32.858  0.00  0.00     0.214 C 
ATOM     26  O7  NAG d 902       4.758 -12.675  33.878  0.00  0.00    -0.274 OA
ATOM     27  C8  NAG d 902       6.130 -14.388  32.805  0.00  0.00     0.117 C 
ATOM     28  H   NAG d 902       4.481 -13.900  30.877  0.00  0.00     0.163 HD
ENDBRANCH   6  24
BRANCH   4  29
ATOM     29  C6  NAG d 902       0.337  -9.080  32.318  0.00  0.00     0.198 C 
BRANCH  29  30
ATOM     30  O6  NAG d 902       0.674  -7.668  32.387  0.00  0.00    -0.398 OA
ATOM     31  H   NAG d 902       0.545  -7.262  31.515  0.00  0.00     0.209 HD
ENDBRANCH  29  30
ENDBRANCH   4  29
BRANCH   3  32
ATOM     32  O1  NAG d 902       1.810 -13.668  33.266  0.00  0.00    -0.369 OA
ATOM     33  H   NAG d 902       2.233 -13.945  34.095  0.00  0.00     0.212 HD
ENDBRANCH   3  32
TORSDOF 11
ENDMDL
MODEL 25
REMARK VINA RESULT:      -6.5      1.595      6.216
REMARK  11 active torsions:
REMARK  status: ('A' for Active; 'I' for Inactive)
REMARK    1  A    between atoms: C4_1  and  O4_9 
REMARK    2  A    between atoms: O6_3  and  C6_15 
REMARK    3  A    between atoms: C1_4  and  O1_21 
REMARK    4  A    between atoms: O2_6  and  C2_13 
REMARK       I    between atoms: C7_7  and  N2_10 
REMARK    5  A    between atoms: O3_8  and  C1_12 
REMARK    6  A    between atoms: O3_8  and  C3_16 
REMARK    7  A    between atoms: N2_10  and  C2_20 
REMARK    8  A    between atoms: C5_11  and  C6_15 
REMARK    9  A    between atoms: C5_18  and  C6_25 
REMARK   10  A    between atoms: O3_22  and  C3_24 
REMARK   11  A    between atoms: O6A_23  and  C6_25 
ROOT
ATOM      1  C4  NAG d 902       4.959 -11.145  29.400  0.00  0.00     0.180 C 
ATOM      2  O5  NAG d 902       3.000 -12.123  30.557  0.00  0.00    -0.349 OA
ATOM      3  C1  NAG d 902       3.722 -12.179  31.866  0.00  0.00     0.282 C 
ATOM      4  C5  NAG d 902       3.470 -11.003  29.664  0.00  0.00     0.179 C 
ATOM      5  C3  NAG d 902       5.715 -11.174  30.755  0.00  0.00     0.183 C 
ATOM      6  C2  NAG d 902       5.226 -12.347  31.612  0.00  0.00     0.171 C 
ENDROOT
BRANCH   5   7
ATOM      7  O3  NAG d 902       7.140 -11.325  30.551  0.00  0.00    -0.348 OA
BRANCH   7   8
ATOM      8  C1  GCD d 901       8.027 -10.282  30.903  0.00  0.00     0.298 C 
ATOM      9  C2  GCD d 901       9.460 -10.660  30.693  0.00  0.00     0.206 C 
ATOM     10  C3  GCD d 901      10.297  -9.403  31.117  0.00  0.00     0.177 C 
ATOM     11  C4  GCD d 901       9.743  -8.008  30.762  0.00  0.00     0.051 C 
ATOM     12  C5  GCD d 901       8.560  -7.910  30.119  0.00  0.00     0.144 C 
ATOM     13  O5  GCD d 901       7.712  -9.144  29.962  0.00  0.00    -0.311 OA
BRANCH   9  14
ATOM     14  O2  GCD d 901       9.837 -11.826  31.494  0.00  0.00    -0.388 OA
ATOM     15  H   GCD d 901      10.701 -11.670  31.906  0.00  0.00     0.210 HD
ENDBRANCH   9  14
BRANCH  10  16
ATOM     16  O3  GCD d 901      11.661  -9.710  30.897  0.00  0.00    -0.389 OA
ATOM     17  H   GCD d 901      11.932  -9.376  30.027  0.00  0.00     0.210 HD
ENDBRANCH  10  16
BRANCH  12  18
ATOM     18  C6  GCD d 901       7.921  -6.604  29.718  0.00  0.00     0.200 C 
ATOM     19  O6B GCD d 901       6.659  -6.746  29.522  0.00  0.00    -0.645 OA
BRANCH  18  20
ATOM     20  O6A GCD d 901       8.720  -5.652  29.378  0.00  0.00    -0.771 OA
ATOM     21  H   GCD d 901       9.601  -5.641  29.699  0.00  0.00     0.167 HD
ENDBRANCH  18  20
ENDBRANCH  12  18
ENDBRANCH   7   8
ENDBRANCH   5   7
BRANCH   1  22
ATOM     22  O4  NAG d 902       5.399 -10.052  28.561  0.00  0.00    -0.390 OA
ATOM     23  H   NAG d 902       6.319  -9.831  28.773  0.00  0.00     0.210 HD
ENDBRANCH   1  22
BRANCH   6  24
ATOM     24  N2  NAG d 902       6.039 -12.380  32.896  0.00  0.00    -0.349 N 
ATOM     25  C7  NAG d 902       6.387 -13.658  33.439  0.00  0.00     0.214 C 
ATOM     26  O7  NAG d 902       6.049 -14.764  32.933  0.00  0.00    -0.274 OA
ATOM     27  C8  NAG d 902       7.253 -13.549  34.679  0.00  0.00     0.117 C 
ATOM     28  H   NAG d 902       6.317 -11.547  33.340  0.00  0.00     0.163 HD
ENDBRANCH   6  24
BRANCH   4  29
ATOM     29  C6  NAG d 902       2.692 -10.993  28.348  0.00  0.00     0.198 C 
BRANCH  29  30
ATOM     30  O6  NAG d 902       3.346 -11.720  27.273  0.00  0.00    -0.398 OA
ATOM     31  H   NAG d 902       3.327 -12.670  27.468  0.00  0.00     0.209 HD
ENDBRANCH  29  30
ENDBRANCH   4  29
BRANCH   3  32
ATOM     32  O1  NAG d 902       3.243 -13.245  32.678  0.00  0.00    -0.369 OA
ATOM     33  H   NAG d 902       3.800 -14.029  32.544  0.00  0.00     0.212 HD
ENDBRANCH   3  32
TORSDOF 11
ENDMDL
MODEL 26
REMARK VINA RESULT:      -6.5      2.730      6.625
REMARK  11 active torsions:
REMARK  status: ('A' for Active; 'I' for Inactive)
REMARK    1  A    between atoms: C4_1  and  O4_9 
REMARK    2  A    between atoms: O6_3  and  C6_15 
REMARK    3  A    between atoms: C1_4  and  O1_21 
REMARK    4  A    between atoms: O2_6  and  C2_13 
REMARK       I    between atoms: C7_7  and  N2_10 
REMARK    5  A    between atoms: O3_8  and  C1_12 
REMARK    6  A    between atoms: O3_8  and  C3_16 
REMARK    7  A    between atoms: N2_10  and  C2_20 
REMARK    8  A    between atoms: C5_11  and  C6_15 
REMARK    9  A    between atoms: C5_18  and  C6_25 
REMARK   10  A    between atoms: O3_22  and  C3_24 
REMARK   11  A    between atoms: O6A_23  and  C6_25 
ROOT
ATOM      1  C4  NAG d 902       4.900 -10.478  29.068  0.00  0.00     0.180 C 
ATOM      2  O5  NAG d 902       4.200  -8.306  28.107  0.00  0.00    -0.349 OA
ATOM      3  C1  NAG d 902       5.322  -7.577  28.778  0.00  0.00     0.282 C 
ATOM      4  C5  NAG d 902       4.527  -9.744  27.792  0.00  0.00     0.179 C 
ATOM      5  C3  NAG d 902       6.082  -9.742  29.751  0.00  0.00     0.183 C 
ATOM      6  C2  NAG d 902       5.691  -8.297  30.081  0.00  0.00     0.171 C 
ENDROOT
BRANCH   5   7
ATOM      7  O3  NAG d 902       6.461 -10.402  30.984  0.00  0.00    -0.348 OA
BRANCH   7   8
ATOM      8  C1  GCD d 901       7.770 -10.908  31.151  0.00  0.00     0.298 C 
ATOM      9  C2  GCD d 901       8.054 -12.057  30.233  0.00  0.00     0.206 C 
ATOM     10  C3  GCD d 901       9.533 -12.485  30.537  0.00  0.00     0.177 C 
ATOM     11  C4  GCD d 901      10.565 -11.377  30.829  0.00  0.00     0.051 C 
ATOM     12  C5  GCD d 901      10.168 -10.087  30.831  0.00  0.00     0.144 C 
ATOM     13  O5  GCD d 901       8.695  -9.779  30.768  0.00  0.00    -0.311 OA
BRANCH   9  14
ATOM     14  O2  GCD d 901       7.136 -13.174  30.462  0.00  0.00    -0.388 OA
ATOM     15  H   GCD d 901       7.563 -13.833  31.031  0.00  0.00     0.210 HD
ENDBRANCH   9  14
BRANCH  10  16
ATOM     16  O3  GCD d 901       9.853 -13.550  29.661  0.00  0.00    -0.389 OA
ATOM     17  H   GCD d 901      10.815 -13.670  29.636  0.00  0.00     0.210 HD
ENDBRANCH  10  16
BRANCH  12  18
ATOM     18  C6  GCD d 901      11.084  -8.920  31.099  0.00  0.00     0.200 C 
ATOM     19  O6B GCD d 901      11.392  -8.846  32.344  0.00  0.00    -0.645 OA
BRANCH  18  20
ATOM     20  O6A GCD d 901      11.201  -8.050  30.154  0.00  0.00    -0.771 OA
ATOM     21  H   GCD d 901      11.562  -8.302  29.327  0.00  0.00     0.167 HD
ENDBRANCH  18  20
ENDBRANCH  12  18
ENDBRANCH   7   8
ENDBRANCH   5   7
BRANCH   1  22
ATOM     22  O4  NAG d 902       5.231 -11.850  28.747  0.00  0.00    -0.390 OA
ATOM     23  H   NAG d 902       5.254 -12.376  29.561  0.00  0.00     0.210 HD
ENDBRANCH   1  22
BRANCH   6  24
ATOM     24  N2  NAG d 902       6.849  -7.637  30.810  0.00  0.00    -0.349 N 
ATOM     25  C7  NAG d 902       6.646  -7.233  32.169  0.00  0.00     0.214 C 
ATOM     26  O7  NAG d 902       5.563  -7.373  32.800  0.00  0.00    -0.274 OA
ATOM     27  C8  NAG d 902       7.897  -6.651  32.798  0.00  0.00     0.117 C 
ATOM     28  H   NAG d 902       7.713  -7.491  30.361  0.00  0.00     0.163 HD
ENDBRANCH   6  24
BRANCH   4  29
ATOM     29  C6  NAG d 902       3.348 -10.432  27.104  0.00  0.00     0.198 C 
BRANCH  29  30
ATOM     30  O6  NAG d 902       3.716 -11.626  26.361  0.00  0.00    -0.398 OA
ATOM     31  H   NAG d 902       3.468 -12.413  26.872  0.00  0.00     0.209 HD
ENDBRANCH  29  30
ENDBRANCH   4  29
BRANCH   3  32
ATOM     32  O1  NAG d 902       4.973  -6.225  29.050  0.00  0.00    -0.369 OA
ATOM     33  H   NAG d 902       5.618  -5.842  29.665  0.00  0.00     0.212 HD
ENDBRANCH   3  32
TORSDOF 11
ENDMDL
MODEL 27
REMARK VINA RESULT:      -6.5      2.481      6.424
REMARK  11 active torsions:
REMARK  status: ('A' for Active; 'I' for Inactive)
REMARK    1  A    between atoms: C4_1  and  O4_9 
REMARK    2  A    between atoms: O6_3  and  C6_15 
REMARK    3  A    between atoms: C1_4  and  O1_21 
REMARK    4  A    between atoms: O2_6  and  C2_13 
REMARK       I    between atoms: C7_7  and  N2_10 
REMARK    5  A    between atoms: O3_8  and  C1_12 
REMARK    6  A    between atoms: O3_8  and  C3_16 
REMARK    7  A    between atoms: N2_10  and  C2_20 
REMARK    8  A    between atoms: C5_11  and  C6_15 
REMARK    9  A    between atoms: C5_18  and  C6_25 
REMARK   10  A    between atoms: O3_22  and  C3_24 
REMARK   11  A    between atoms: O6A_23  and  C6_25 
ROOT
ATOM      1  C4  NAG d 902       1.393  -9.187  29.286  0.00  0.00     0.180 C 
ATOM      2  O5  NAG d 902       2.231  -8.997  26.964  0.00  0.00    -0.349 OA
ATOM      3  C1  NAG d 902       3.549  -9.609  27.323  0.00  0.00     0.282 C 
ATOM      4  C5  NAG d 902       1.093  -9.482  27.827  0.00  0.00     0.179 C 
ATOM      5  C3  NAG d 902       2.744  -9.845  29.671  0.00  0.00     0.183 C 
ATOM      6  C2  NAG d 902       3.873  -9.297  28.790  0.00  0.00     0.171 C 
ENDROOT
BRANCH   5   7
ATOM      7  O3  NAG d 902       3.078  -9.575  31.054  0.00  0.00    -0.348 OA
BRANCH   7   8
ATOM      8  C1  GCD d 901       3.336 -10.639  31.947  0.00  0.00     0.298 C 
ATOM      9  C2  GCD d 901       2.265 -11.684  31.911  0.00  0.00     0.206 C 
ATOM     10  C3  GCD d 901       2.709 -12.783  32.939  0.00  0.00     0.177 C 
ATOM     11  C4  GCD d 901       4.209 -13.131  33.028  0.00  0.00     0.051 C 
ATOM     12  C5  GCD d 901       5.087 -12.477  32.239  0.00  0.00     0.144 C 
ATOM     13  O5  GCD d 901       4.614 -11.279  31.459  0.00  0.00    -0.311 OA
BRANCH   9  14
ATOM     14  O2  GCD d 901       0.958 -11.133  32.276  0.00  0.00    -0.388 OA
ATOM     15  H   GCD d 901       0.451 -11.800  32.765  0.00  0.00     0.210 HD
ENDBRANCH   9  14
BRANCH  10  16
ATOM     16  O3  GCD d 901       1.735 -13.810  32.908  0.00  0.00    -0.389 OA
ATOM     17  H   GCD d 901       1.383 -13.949  33.800  0.00  0.00     0.210 HD
ENDBRANCH  10  16
BRANCH  12  18
ATOM     18  C6  GCD d 901       6.573 -12.732  32.235  0.00  0.00     0.200 C 
ATOM     19  O6B GCD d 901       7.190 -11.907  33.003  0.00  0.00    -0.645 OA
BRANCH  18  20
ATOM     20  O6A GCD d 901       7.022 -13.509  31.309  0.00  0.00    -0.771 OA
ATOM     21  H   GCD d 901       7.901 -13.412  31.000  0.00  0.00     0.167 HD
ENDBRANCH  18  20
ENDBRANCH  12  18
ENDBRANCH   7   8
ENDBRANCH   5   7
BRANCH   1  22
ATOM     22  O4  NAG d 902       0.303  -9.676  30.103  0.00  0.00    -0.390 OA
ATOM     23  H   NAG d 902       0.233  -9.137  30.905  0.00  0.00     0.210 HD
ENDBRANCH   1  22
BRANCH   6  24
ATOM     24  N2  NAG d 902       5.185  -9.914  29.245  0.00  0.00    -0.349 N 
ATOM     25  C7  NAG d 902       6.266  -9.032  29.569  0.00  0.00     0.214 C 
ATOM     26  O7  NAG d 902       6.210  -7.775  29.484  0.00  0.00    -0.274 OA
ATOM     27  C8  NAG d 902       7.490  -9.771  30.073  0.00  0.00     0.117 C 
ATOM     28  H   NAG d 902       5.288 -10.890  29.316  0.00  0.00     0.163 HD
ENDBRANCH   6  24
BRANCH   4  29
ATOM     29  C6  NAG d 902      -0.224  -8.828  27.408  0.00  0.00     0.198 C 
BRANCH  29  30
ATOM     30  O6  NAG d 902      -1.401  -9.609  27.746  0.00  0.00    -0.398 OA
ATOM     31  H   NAG d 902      -1.151 -10.541  27.852  0.00  0.00     0.209 HD
ENDBRANCH  29  30
ENDBRANCH   4  29
BRANCH   3  32
ATOM     32  O1  NAG d 902       4.590  -9.130  26.481  0.00  0.00    -0.369 OA
ATOM     33  H   NAG d 902       5.410  -9.050  26.995  0.00  0.00     0.212 HD
ENDBRANCH   3  32
TORSDOF 11
ENDMDL
MODEL 28
REMARK VINA RESULT:      -6.5      2.300      3.949
REMARK  11 active torsions:
REMARK  status: ('A' for Active; 'I' for Inactive)
REMARK    1  A    between atoms: C4_1  and  O4_9 
REMARK    2  A    between atoms: O6_3  and  C6_15 
REMARK    3  A    between atoms: C1_4  and  O1_21 
REMARK    4  A    between atoms: O2_6  and  C2_13 
REMARK       I    between atoms: C7_7  and  N2_10 
REMARK    5  A    between atoms: O3_8  and  C1_12 
REMARK    6  A    between atoms: O3_8  and  C3_16 
REMARK    7  A    between atoms: N2_10  and  C2_20 
REMARK    8  A    between atoms: C5_11  and  C6_15 
REMARK    9  A    between atoms: C5_18  and  C6_25 
REMARK   10  A    between atoms: O3_22  and  C3_24 
REMARK   11  A    between atoms: O6A_23  and  C6_25 
ROOT
ATOM      1  C4  NAG d 902       7.151 -11.940  29.083  0.00  0.00     0.180 C 
ATOM      2  O5  NAG d 902       9.138 -13.048  30.061  0.00  0.00    -0.349 OA
ATOM      3  C1  NAG d 902       9.318 -11.965  31.078  0.00  0.00     0.282 C 
ATOM      4  C5  NAG d 902       7.702 -13.239  29.642  0.00  0.00     0.179 C 
ATOM      5  C3  NAG d 902       7.309 -10.821  30.147  0.00  0.00     0.183 C 
ATOM      6  C2  NAG d 902       8.787 -10.641  30.515  0.00  0.00     0.171 C 
ENDROOT
BRANCH   5   7
ATOM      7  O3  NAG d 902       6.809  -9.556  29.649  0.00  0.00    -0.348 OA
BRANCH   7   8
ATOM      8  C1  GCD d 901       5.513  -9.114  29.995  0.00  0.00     0.298 C 
ATOM      9  C2  GCD d 901       4.761  -8.578  28.816  0.00  0.00     0.206 C 
ATOM     10  C3  GCD d 901       3.357  -8.148  29.369  0.00  0.00     0.177 C 
ATOM     11  C4  GCD d 901       2.697  -9.033  30.445  0.00  0.00     0.051 C 
ATOM     12  C5  GCD d 901       3.345 -10.132  30.886  0.00  0.00     0.144 C 
ATOM     13  O5  GCD d 901       4.781 -10.341  30.483  0.00  0.00    -0.311 OA
BRANCH   9  14
ATOM     14  O2  GCD d 901       5.449  -7.438  28.208  0.00  0.00    -0.388 OA
ATOM     15  H   GCD d 901       4.869  -6.661  28.231  0.00  0.00     0.210 HD
ENDBRANCH   9  14
BRANCH  10  16
ATOM     16  O3  GCD d 901       2.602  -7.667  28.272  0.00  0.00    -0.389 OA
ATOM     17  H   GCD d 901       2.409  -6.725  28.401  0.00  0.00     0.210 HD
ENDBRANCH  10  16
BRANCH  12  18
ATOM     18  C6  GCD d 901       2.799 -11.073  31.930  0.00  0.00     0.200 C 
ATOM     19  O6B GCD d 901       3.747 -11.690  32.540  0.00  0.00    -0.645 OA
BRANCH  18  20
ATOM     20  O6A GCD d 901       1.535 -11.322  31.878  0.00  0.00    -0.771 OA
ATOM     21  H   GCD d 901       1.030 -11.030  31.144  0.00  0.00     0.167 HD
ENDBRANCH  18  20
ENDBRANCH  12  18
ENDBRANCH   7   8
ENDBRANCH   5   7
BRANCH   1  22
ATOM     22  O4  NAG d 902       5.767 -12.133  28.706  0.00  0.00    -0.390 OA
ATOM     23  H   NAG d 902       5.655 -11.923  27.767  0.00  0.00     0.210 HD
ENDBRANCH   1  22
BRANCH   6  24
ATOM     24  N2  NAG d 902       8.903  -9.493  31.503  0.00  0.00    -0.349 N 
ATOM     25  C7  NAG d 902      10.090  -8.693  31.467  0.00  0.00     0.214 C 
ATOM     26  O7  NAG d 902      11.057  -8.886  30.680  0.00  0.00    -0.274 OA
ATOM     27  C8  NAG d 902      10.048  -7.544  32.456  0.00  0.00     0.117 C 
ATOM     28  H   NAG d 902       8.183  -9.305  32.148  0.00  0.00     0.163 HD
ENDBRANCH   6  24
BRANCH   4  29
ATOM     29  C6  NAG d 902       7.581 -14.360  28.609  0.00  0.00     0.198 C 
BRANCH  29  30
ATOM     30  O6  NAG d 902       8.511 -14.240  27.500  0.00  0.00    -0.398 OA
ATOM     31  H   NAG d 902       9.033 -13.428  27.602  0.00  0.00     0.209 HD
ENDBRANCH  29  30
ENDBRANCH   4  29
BRANCH   3  32
ATOM     32  O1  NAG d 902      10.685 -11.823  31.448  0.00  0.00    -0.369 OA
ATOM     33  H   NAG d 902      11.067 -12.700  31.616  0.00  0.00     0.212 HD
ENDBRANCH   3  32
TORSDOF 11
ENDMDL
MODEL 29
REMARK VINA RESULT:      -6.5      2.512      5.862
REMARK  11 active torsions:
REMARK  status: ('A' for Active; 'I' for Inactive)
REMARK    1  A    between atoms: C4_1  and  O4_9 
REMARK    2  A    between atoms: O6_3  and  C6_15 
REMARK    3  A    between atoms: C1_4  and  O1_21 
REMARK    4  A    between atoms: O2_6  and  C2_13 
REMARK       I    between atoms: C7_7  and  N2_10 
REMARK    5  A    between atoms: O3_8  and  C1_12 
REMARK    6  A    between atoms: O3_8  and  C3_16 
REMARK    7  A    between atoms: N2_10  and  C2_20 
REMARK    8  A    between atoms: C5_11  and  C6_15 
REMARK    9  A    between atoms: C5_18  and  C6_25 
REMARK   10  A    between atoms: O3_22  and  C3_24 
REMARK   11  A    between atoms: O6A_23  and  C6_25 
ROOT
ATOM      1  C4  NAG d 902       3.847  -7.997  31.346  0.00  0.00     0.180 C 
ATOM      2  O5  NAG d 902       1.558  -8.500  30.546  0.00  0.00    -0.349 OA
ATOM      3  C1  NAG d 902       1.990  -9.792  29.928  0.00  0.00     0.282 C 
ATOM      4  C5  NAG d 902       2.385  -8.105  31.743  0.00  0.00     0.179 C 
ATOM      5  C3  NAG d 902       4.307  -9.346  30.732  0.00  0.00     0.183 C 
ATOM      6  C2  NAG d 902       3.460  -9.687  29.500  0.00  0.00     0.171 C 
ENDROOT
BRANCH   5   7
ATOM      7  O3  NAG d 902       5.696  -9.282  30.323  0.00  0.00    -0.348 OA
BRANCH   7   8
ATOM      8  C1  GCD d 901       6.576 -10.348  30.615  0.00  0.00     0.298 C 
ATOM      9  C2  GCD d 901       7.943  -9.869  30.992  0.00  0.00     0.206 C 
ATOM     10  C3  GCD d 901       8.778 -11.163  31.291  0.00  0.00     0.177 C 
ATOM     11  C4  GCD d 901       8.076 -12.330  32.015  0.00  0.00     0.051 C 
ATOM     12  C5  GCD d 901       6.775 -12.212  32.351  0.00  0.00     0.144 C 
ATOM     13  O5  GCD d 901       5.988 -11.043  31.819  0.00  0.00    -0.311 OA
BRANCH   9  14
ATOM     14  O2  GCD d 901       8.561  -9.092  29.916  0.00  0.00    -0.388 OA
ATOM     15  H   GCD d 901       8.735  -8.190  30.227  0.00  0.00     0.210 HD
ENDBRANCH   9  14
BRANCH  10  16
ATOM     16  O3  GCD d 901      10.072 -10.748  31.687  0.00  0.00    -0.389 OA
ATOM     17  H   GCD d 901      10.723 -11.414  31.415  0.00  0.00     0.210 HD
ENDBRANCH  10  16
BRANCH  12  18
ATOM     18  C6  GCD d 901       5.984 -13.282  33.062  0.00  0.00     0.200 C 
ATOM     19  O6B GCD d 901       5.426 -12.820  34.123  0.00  0.00    -0.645 OA
BRANCH  18  20
ATOM     20  O6A GCD d 901       6.192 -14.497  32.686  0.00  0.00    -0.771 OA
ATOM     21  H   GCD d 901       6.104 -15.200  33.300  0.00  0.00     0.167 HD
ENDBRANCH  18  20
ENDBRANCH  12  18
ENDBRANCH   7   8
ENDBRANCH   5   7
BRANCH   1  22
ATOM     22  O4  NAG d 902       4.630  -7.639  32.509  0.00  0.00    -0.390 OA
ATOM     23  H   NAG d 902       5.515  -7.359  32.229  0.00  0.00     0.210 HD
ENDBRANCH   1  22
BRANCH   6  24
ATOM     24  N2  NAG d 902       3.989 -10.974  28.891  0.00  0.00    -0.349 N 
ATOM     25  C7  NAG d 902       4.394 -10.951  27.518  0.00  0.00     0.214 C 
ATOM     26  O7  NAG d 902       4.326  -9.936  26.771  0.00  0.00    -0.274 OA
ATOM     27  C8  NAG d 902       4.963 -12.278  27.055  0.00  0.00     0.117 C 
ATOM     28  H   NAG d 902       4.051 -11.799  29.425  0.00  0.00     0.163 HD
ENDBRANCH   6  24
BRANCH   4  29
ATOM     29  C6  NAG d 902       1.892  -6.784  32.334  0.00  0.00     0.198 C 
BRANCH  29  30
ATOM     30  O6  NAG d 902       2.247  -6.596  33.730  0.00  0.00    -0.398 OA
ATOM     31  H   NAG d 902       2.225  -5.650  33.944  0.00  0.00     0.209 HD
ENDBRANCH  29  30
ENDBRANCH   4  29
BRANCH   3  32
ATOM     32  O1  NAG d 902       1.181 -10.128  28.807  0.00  0.00    -0.369 OA
ATOM     33  H   NAG d 902       1.676  -9.964  27.989  0.00  0.00     0.212 HD
ENDBRANCH   3  32
TORSDOF 11
ENDMDL
MODEL 30
REMARK VINA RESULT:      -6.5      2.461      3.401
REMARK  11 active torsions:
REMARK  status: ('A' for Active; 'I' for Inactive)
REMARK    1  A    between atoms: C4_1  and  O4_9 
REMARK    2  A    between atoms: O6_3  and  C6_15 
REMARK    3  A    between atoms: C1_4  and  O1_21 
REMARK    4  A    between atoms: O2_6  and  C2_13 
REMARK       I    between atoms: C7_7  and  N2_10 
REMARK    5  A    between atoms: O3_8  and  C1_12 
REMARK    6  A    between atoms: O3_8  and  C3_16 
REMARK    7  A    between atoms: N2_10  and  C2_20 
REMARK    8  A    between atoms: C5_11  and  C6_15 
REMARK    9  A    between atoms: C5_18  and  C6_25 
REMARK   10  A    between atoms: O3_22  and  C3_24 
REMARK   11  A    between atoms: O6A_23  and  C6_25 
ROOT
ATOM      1  C4  NAG d 902       8.871  -7.308  32.679  0.00  0.00     0.180 C 
ATOM      2  O5  NAG d 902      11.270  -7.763  32.269  0.00  0.00    -0.349 OA
ATOM      3  C1  NAG d 902      10.961  -8.829  31.265  0.00  0.00     0.282 C 
ATOM      4  C5  NAG d 902      10.215  -6.688  32.341  0.00  0.00     0.179 C 
ATOM      5  C3  NAG d 902       8.532  -8.394  31.624  0.00  0.00     0.183 C 
ATOM      6  C2  NAG d 902       9.615  -9.480  31.611  0.00  0.00     0.171 C 
ENDROOT
BRANCH   5   7
ATOM      7  O3  NAG d 902       7.262  -9.024  31.917  0.00  0.00    -0.348 OA
BRANCH   7   8
ATOM      8  C1  GCD d 901       6.080  -8.579  31.283  0.00  0.00     0.298 C 
ATOM      9  C2  GCD d 901       5.344  -9.693  30.607  0.00  0.00     0.206 C 
ATOM     10  C3  GCD d 901       4.068  -9.035  29.972  0.00  0.00     0.177 C 
ATOM     11  C4  GCD d 901       3.351  -7.925  30.768  0.00  0.00     0.051 C 
ATOM     12  C5  GCD d 901       3.845  -7.546  31.965  0.00  0.00     0.144 C 
ATOM     13  O5  GCD d 901       5.197  -8.054  32.390  0.00  0.00    -0.311 OA
BRANCH   9  14
ATOM     14  O2  GCD d 901       6.161 -10.336  29.576  0.00  0.00    -0.388 OA
ATOM     15  H   GCD d 901       6.128 -11.298  29.690  0.00  0.00     0.210 HD
ENDBRANCH   9  14
BRANCH  10  16
ATOM     16  O3  GCD d 901       3.325 -10.068  29.351  0.00  0.00    -0.389 OA
ATOM     17  H   GCD d 901       3.745 -10.307  28.510  0.00  0.00     0.210 HD
ENDBRANCH  10  16
BRANCH  12  18
ATOM     18  C6  GCD d 901       3.229  -6.477  32.833  0.00  0.00     0.200 C 
ATOM     19  O6B GCD d 901       4.129  -5.699  33.321  0.00  0.00    -0.645 OA
BRANCH  18  20
ATOM     20  O6A GCD d 901       1.997  -6.647  33.170  0.00  0.00    -0.771 OA
ATOM     21  H   GCD d 901       1.720  -7.463  33.539  0.00  0.00     0.167 HD
ENDBRANCH  18  20
ENDBRANCH  12  18
ENDBRANCH   7   8
ENDBRANCH   5   7
BRANCH   1  22
ATOM     22  O4  NAG d 902       7.866  -6.268  32.724  0.00  0.00    -0.390 OA
ATOM     23  H   NAG d 902       7.005  -6.639  32.476  0.00  0.00     0.210 HD
ENDBRANCH   1  22
BRANCH   6  24
ATOM     24  N2  NAG d 902       9.209 -10.555  30.617  0.00  0.00    -0.349 N 
ATOM     25  C7  NAG d 902       8.975 -11.877  31.114  0.00  0.00     0.214 C 
ATOM     26  O7  NAG d 902       9.099 -12.216  32.323  0.00  0.00    -0.274 OA
ATOM     27  C8  NAG d 902       8.513 -12.834  30.033  0.00  0.00     0.117 C 
ATOM     28  H   NAG d 902       9.111 -10.348  29.659  0.00  0.00     0.163 HD
ENDBRANCH   6  24
BRANCH   4  29
ATOM     29  C6  NAG d 902      10.590  -5.627  33.376  0.00  0.00     0.198 C 
BRANCH  29  30
ATOM     30  O6  NAG d 902       9.977  -5.832  34.678  0.00  0.00    -0.398 OA
ATOM     31  H   NAG d 902      10.089  -6.758  34.945  0.00  0.00     0.209 HD
ENDBRANCH  29  30
ENDBRANCH   4  29
BRANCH   3  32
ATOM     32  O1  NAG d 902      11.983  -9.817  31.226  0.00  0.00    -0.369 OA
ATOM     33  H   NAG d 902      11.687 -10.567  30.686  0.00  0.00     0.212 HD
ENDBRANCH   3  32
TORSDOF 11
ENDMDL
MODEL 31
REMARK VINA RESULT:      -6.5      2.459      4.579
REMARK  11 active torsions:
REMARK  status: ('A' for Active; 'I' for Inactive)
REMARK    1  A    between atoms: C4_1  and  O4_9 
REMARK    2  A    between atoms: O6_3  and  C6_15 
REMARK    3  A    between atoms: C1_4  and  O1_21 
REMARK    4  A    between atoms: O2_6  and  C2_13 
REMARK       I    between atoms: C7_7  and  N2_10 
REMARK    5  A    between atoms: O3_8  and  C1_12 
REMARK    6  A    between atoms: O3_8  and  C3_16 
REMARK    7  A    between atoms: N2_10  and  C2_20 
REMARK    8  A    between atoms: C5_11  and  C6_15 
REMARK    9  A    between atoms: C5_18  and  C6_25 
REMARK   10  A    between atoms: O3_22  and  C3_24 
REMARK   11  A    between atoms: O6A_23  and  C6_25 
ROOT
ATOM      1  C4  NAG d 902       8.664  -9.071  30.158  0.00  0.00     0.180 C 
ATOM      2  O5  NAG d 902       8.387  -6.723  30.894  0.00  0.00    -0.349 OA
ATOM      3  C1  NAG d 902       6.911  -6.888  31.074  0.00  0.00     0.282 C 
ATOM      4  C5  NAG d 902       9.161  -7.999  31.112  0.00  0.00     0.179 C 
ATOM      5  C3  NAG d 902       7.139  -9.266  30.362  0.00  0.00     0.183 C 
ATOM      6  C2  NAG d 902       6.394  -7.952  30.097  0.00  0.00     0.171 C 
ENDROOT
BRANCH   5   7
ATOM      7  O3  NAG d 902       6.618 -10.271  29.458  0.00  0.00    -0.348 OA
BRANCH   7   8
ATOM      8  C1  GCD d 901       6.384 -11.588  29.913  0.00  0.00     0.298 C 
ATOM      9  C2  GCD d 901       7.132 -12.607  29.111  0.00  0.00     0.206 C 
ATOM     10  C3  GCD d 901       6.773 -13.995  29.749  0.00  0.00     0.177 C 
ATOM     11  C4  GCD d 901       6.640 -14.077  31.283  0.00  0.00     0.051 C 
ATOM     12  C5  GCD d 901       6.819 -12.963  32.022  0.00  0.00     0.144 C 
ATOM     13  O5  GCD d 901       6.923 -11.633  31.323  0.00  0.00    -0.311 OA
BRANCH   9  14
ATOM     14  O2  GCD d 901       6.748 -12.573  27.698  0.00  0.00    -0.388 OA
ATOM     15  H   GCD d 901       7.171 -13.310  27.230  0.00  0.00     0.210 HD
ENDBRANCH   9  14
BRANCH  10  16
ATOM     16  O3  GCD d 901       7.491 -14.986  29.036  0.00  0.00    -0.389 OA
ATOM     17  H   GCD d 901       7.512 -15.805  29.555  0.00  0.00     0.210 HD
ENDBRANCH  10  16
BRANCH  12  18
ATOM     18  C6  GCD d 901       6.718 -12.921  33.527  0.00  0.00     0.200 C 
ATOM     19  O6B GCD d 901       5.492 -12.927  33.911  0.00  0.00    -0.645 OA
BRANCH  18  20
ATOM     20  O6A GCD d 901       7.796 -12.622  34.168  0.00  0.00    -0.771 OA
ATOM     21  H   GCD d 901       7.939 -11.743  34.460  0.00  0.00     0.167 HD
ENDBRANCH  18  20
ENDBRANCH  12  18
ENDBRANCH   7   8
ENDBRANCH   5   7
BRANCH   1  22
ATOM     22  O4  NAG d 902       9.401 -10.294  30.393  0.00  0.00    -0.390 OA
ATOM     23  H   NAG d 902       9.735 -10.637  29.550  0.00  0.00     0.210 HD
ENDBRANCH   1  22
BRANCH   6  24
ATOM     24  N2  NAG d 902       4.902  -8.204  30.239  0.00  0.00    -0.349 N 
ATOM     25  C7  NAG d 902       4.057  -7.886  29.128  0.00  0.00     0.214 C 
ATOM     26  O7  NAG d 902       4.465  -7.391  28.041  0.00  0.00    -0.274 OA
ATOM     27  C8  NAG d 902       2.606  -8.248  29.376  0.00  0.00     0.117 C 
ATOM     28  H   NAG d 902       4.529  -8.576  31.071  0.00  0.00     0.163 HD
ENDBRANCH   6  24
BRANCH   4  29
ATOM     29  C6  NAG d 902      10.660  -7.766  30.921  0.00  0.00     0.198 C 
BRANCH  29  30
ATOM     30  O6  NAG d 902      11.497  -8.620  31.746  0.00  0.00    -0.398 OA
ATOM     31  H   NAG d 902      11.394  -9.543  31.464  0.00  0.00     0.209 HD
ENDBRANCH  29  30
ENDBRANCH   4  29
BRANCH   3  32
ATOM     32  O1  NAG d 902       6.223  -5.660  30.866  0.00  0.00    -0.369 OA
ATOM     33  H   NAG d 902       6.062  -5.231  31.721  0.00  0.00     0.212 HD
ENDBRANCH   3  32
TORSDOF 11
ENDMDL
MODEL 32
REMARK VINA RESULT:      -6.5      3.212      6.801
REMARK  11 active torsions:
REMARK  status: ('A' for Active; 'I' for Inactive)
REMARK    1  A    between atoms: C4_1  and  O4_9 
REMARK    2  A    between atoms: O6_3  and  C6_15 
REMARK    3  A    between atoms: C1_4  and  O1_21 
REMARK    4  A    between atoms: O2_6  and  C2_13 
REMARK       I    between atoms: C7_7  and  N2_10 
REMARK    5  A    between atoms: O3_8  and  C1_12 
REMARK    6  A    between atoms: O3_8  and  C3_16 
REMARK    7  A    between atoms: N2_10  and  C2_20 
REMARK    8  A    between atoms: C5_11  and  C6_15 
REMARK    9  A    between atoms: C5_18  and  C6_25 
REMARK   10  A    between atoms: O3_22  and  C3_24 
REMARK   11  A    between atoms: O6A_23  and  C6_25 
ROOT
ATOM      1  C4  NAG d 902       1.908  -9.788  32.049  0.00  0.00     0.180 C 
ATOM      2  O5  NAG d 902       0.939  -7.523  32.297  0.00  0.00    -0.349 OA
ATOM      3  C1  NAG d 902       2.205  -6.864  31.846  0.00  0.00     0.282 C 
ATOM      4  C5  NAG d 902       0.733  -8.892  31.699  0.00  0.00     0.179 C 
ATOM      5  C3  NAG d 902       3.220  -9.123  31.557  0.00  0.00     0.183 C 
ATOM      6  C2  NAG d 902       3.401  -7.750  32.217  0.00  0.00     0.171 C 
ENDROOT
BRANCH   5   7
ATOM      7  O3  NAG d 902       4.371  -9.938  31.886  0.00  0.00    -0.348 OA
BRANCH   7   8
ATOM      8  C1  GCD d 901       5.193 -10.459  30.861  0.00  0.00     0.298 C 
ATOM      9  C2  GCD d 901       5.894 -11.715  31.279  0.00  0.00     0.206 C 
ATOM     10  C3  GCD d 901       6.743 -12.159  30.037  0.00  0.00     0.177 C 
ATOM     11  C4  GCD d 901       6.131 -11.975  28.634  0.00  0.00     0.051 C 
ATOM     12  C5  GCD d 901       4.903 -11.428  28.515  0.00  0.00     0.144 C 
ATOM     13  O5  GCD d 901       4.259 -10.813  29.730  0.00  0.00    -0.311 OA
BRANCH   9  14
ATOM     14  O2  GCD d 901       6.755 -11.494  32.442  0.00  0.00    -0.388 OA
ATOM     15  H   GCD d 901       7.069 -12.348  32.779  0.00  0.00     0.210 HD
ENDBRANCH   9  14
BRANCH  10  16
ATOM     16  O3  GCD d 901       7.395 -13.368  30.382  0.00  0.00    -0.389 OA
ATOM     17  H   GCD d 901       6.732 -14.051  30.568  0.00  0.00     0.210 HD
ENDBRANCH  10  16
BRANCH  12  18
ATOM     18  C6  GCD d 901       4.201 -11.202  27.200  0.00  0.00     0.200 C 
ATOM     19  O6B GCD d 901       4.064 -12.302  26.550  0.00  0.00    -0.645 OA
BRANCH  18  20
ATOM     20  O6A GCD d 901       4.092  -9.978  26.808  0.00  0.00    -0.771 OA
ATOM     21  H   GCD d 901       3.544  -9.767  26.078  0.00  0.00     0.167 HD
ENDBRANCH  18  20
ENDBRANCH  12  18
ENDBRANCH   7   8
ENDBRANCH   5   7
BRANCH   1  22
ATOM     22  O4  NAG d 902       1.707 -11.091  31.452  0.00  0.00    -0.390 OA
ATOM     23  H   NAG d 902       2.562 -11.536  31.351  0.00  0.00     0.210 HD
ENDBRANCH   1  22
BRANCH   6  24
ATOM     24  N2  NAG d 902       4.728  -7.167  31.762  0.00  0.00    -0.349 N 
ATOM     25  C7  NAG d 902       5.440  -6.323  32.675  0.00  0.00     0.214 C 
ATOM     26  O7  NAG d 902       5.031  -6.017  33.829  0.00  0.00    -0.274 OA
ATOM     27  C8  NAG d 902       6.776  -5.864  32.125  0.00  0.00     0.117 C 
ATOM     28  H   NAG d 902       5.087  -7.362  30.867  0.00  0.00     0.163 HD
ENDBRANCH   6  24
BRANCH   4  29
ATOM     29  C6  NAG d 902      -0.576  -9.510  32.191  0.00  0.00     0.198 C 
BRANCH  29  30
ATOM     30  O6  NAG d 902      -0.401 -10.500  33.240  0.00  0.00    -0.398 OA
ATOM     31  H   NAG d 902      -1.244 -10.952  33.401  0.00  0.00     0.209 HD
ENDBRANCH  29  30
ENDBRANCH   4  29
BRANCH   3  32
ATOM     32  O1  NAG d 902       2.355  -5.575  32.429  0.00  0.00    -0.369 OA
ATOM     33  H   NAG d 902       1.585  -5.028  32.206  0.00  0.00     0.212 HD
ENDBRANCH   3  32
TORSDOF 11
ENDMDL
MODEL 33
REMARK VINA RESULT:      -6.5      2.172      3.793
REMARK  11 active torsions:
REMARK  status: ('A' for Active; 'I' for Inactive)
REMARK    1  A    between atoms: C4_1  and  O4_9 
REMARK    2  A    between atoms: O6_3  and  C6_15 
REMARK    3  A    between atoms: C1_4  and  O1_21 
REMARK    4  A    between atoms: O2_6  and  C2_13 
REMARK       I    between atoms: C7_7  and  N2_10 
REMARK    5  A    between atoms: O3_8  and  C1_12 
REMARK    6  A    between atoms: O3_8  and  C3_16 
REMARK    7  A    between atoms: N2_10  and  C2_20 
REMARK    8  A    between atoms: C5_11  and  C6_15 
REMARK    9  A    between atoms: C5_18  and  C6_25 
REMARK   10  A    between atoms: O3_22  and  C3_24 
REMARK   11  A    between atoms: O6A_23  and  C6_25 
ROOT
ATOM      1  C4  NAG d 902       6.910 -12.290  29.243  0.00  0.00     0.180 C 
ATOM      2  O5  NAG d 902       9.175 -13.094  29.839  0.00  0.00    -0.349 OA
ATOM      3  C1  NAG d 902       9.279 -12.139  30.987  0.00  0.00     0.282 C 
ATOM      4  C5  NAG d 902       7.758 -13.514  29.540  0.00  0.00     0.179 C 
ATOM      5  C3  NAG d 902       6.992 -11.310  30.444  0.00  0.00     0.183 C 
ATOM      6  C2  NAG d 902       8.445 -10.887  30.687  0.00  0.00     0.171 C 
ENDROOT
BRANCH   5   7
ATOM      7  O3  NAG d 902       6.208 -10.118  30.196  0.00  0.00    -0.348 OA
BRANCH   7   8
ATOM      8  C1  GCD d 901       4.894 -10.009  30.703  0.00  0.00     0.298 C 
ATOM      9  C2  GCD d 901       3.915  -9.580  29.654  0.00  0.00     0.206 C 
ATOM     10  C3  GCD d 901       2.522  -9.521  30.374  0.00  0.00     0.177 C 
ATOM     11  C4  GCD d 901       2.198 -10.606  31.422  0.00  0.00     0.051 C 
ATOM     12  C5  GCD d 901       3.118 -11.554  31.698  0.00  0.00     0.144 C 
ATOM     13  O5  GCD d 901       4.510 -11.401  31.143  0.00  0.00    -0.311 OA
BRANCH   9  14
ATOM     14  O2  GCD d 901       4.261  -8.274  29.091  0.00  0.00    -0.388 OA
ATOM     15  H   GCD d 901       4.499  -7.665  29.808  0.00  0.00     0.210 HD
ENDBRANCH   9  14
BRANCH  10  16
ATOM     16  O3  GCD d 901       1.560  -9.152  29.403  0.00  0.00    -0.389 OA
ATOM     17  H   GCD d 901       0.674  -9.184  29.797  0.00  0.00     0.210 HD
ENDBRANCH  10  16
BRANCH  12  18
ATOM     18  C6  GCD d 901       2.915 -12.664  32.697  0.00  0.00     0.200 C 
ATOM     19  O6B GCD d 901       3.838 -12.659  33.591  0.00  0.00    -0.645 OA
BRANCH  18  20
ATOM     20  O6A GCD d 901       2.061 -13.576  32.380  0.00  0.00    -0.771 OA
ATOM     21  H   GCD d 901       1.834 -13.714  31.481  0.00  0.00     0.167 HD
ENDBRANCH  18  20
ENDBRANCH  12  18
ENDBRANCH   7   8
ENDBRANCH   5   7
BRANCH   1  22
ATOM     22  O4  NAG d 902       5.549 -12.706  28.979  0.00  0.00    -0.390 OA
ATOM     23  H   NAG d 902       5.557 -13.523  28.457  0.00  0.00     0.210 HD
ENDBRANCH   1  22
BRANCH   6  24
ATOM     24  N2  NAG d 902       8.471  -9.878  31.822  0.00  0.00    -0.349 N 
ATOM     25  C7  NAG d 902       9.131  -8.628  31.596  0.00  0.00     0.214 C 
ATOM     26  O7  NAG d 902       9.710  -8.312  30.520  0.00  0.00    -0.274 OA
ATOM     27  C8  NAG d 902       9.026  -7.689  32.782  0.00  0.00     0.117 C 
ATOM     28  H   NAG d 902       8.047 -10.078  32.688  0.00  0.00     0.163 HD
ENDBRANCH   6  24
BRANCH   4  29
ATOM     29  C6  NAG d 902       7.716 -14.491  28.365  0.00  0.00     0.198 C 
BRANCH  29  30
ATOM     30  O6  NAG d 902       8.746 -14.255  27.367  0.00  0.00    -0.398 OA
ATOM     31  H   NAG d 902       8.351 -14.284  26.482  0.00  0.00     0.209 HD
ENDBRANCH  29  30
ENDBRANCH   4  29
BRANCH   3  32
ATOM     32  O1  NAG d 902      10.631 -11.775  31.237  0.00  0.00    -0.369 OA
ATOM     33  H   NAG d 902      10.658 -11.072  31.906  0.00  0.00     0.212 HD
ENDBRANCH   3  32
TORSDOF 11
ENDMDL
MODEL 34
REMARK VINA RESULT:      -6.5      2.000      4.260
REMARK  11 active torsions:
REMARK  status: ('A' for Active; 'I' for Inactive)
REMARK    1  A    between atoms: C4_1  and  O4_9 
REMARK    2  A    between atoms: O6_3  and  C6_15 
REMARK    3  A    between atoms: C1_4  and  O1_21 
REMARK    4  A    between atoms: O2_6  and  C2_13 
REMARK       I    between atoms: C7_7  and  N2_10 
REMARK    5  A    between atoms: O3_8  and  C1_12 
REMARK    6  A    between atoms: O3_8  and  C3_16 
REMARK    7  A    between atoms: N2_10  and  C2_20 
REMARK    8  A    between atoms: C5_11  and  C6_15 
REMARK    9  A    between atoms: C5_18  and  C6_25 
REMARK   10  A    between atoms: O3_22  and  C3_24 
REMARK   11  A    between atoms: O6A_23  and  C6_25 
ROOT
ATOM      1  C4  NAG d 902       6.434  -7.773  31.756  0.00  0.00     0.180 C 
ATOM      2  O5  NAG d 902       7.915  -6.148  30.615  0.00  0.00    -0.349 OA
ATOM      3  C1  NAG d 902       8.860  -7.223  30.177  0.00  0.00     0.282 C 
ATOM      4  C5  NAG d 902       6.493  -6.628  30.760  0.00  0.00     0.179 C 
ATOM      5  C3  NAG d 902       7.391  -8.902  31.289  0.00  0.00     0.183 C 
ATOM      6  C2  NAG d 902       8.827  -8.375  31.190  0.00  0.00     0.171 C 
ENDROOT
BRANCH   5   7
ATOM      7  O3  NAG d 902       7.379 -10.011  32.221  0.00  0.00    -0.348 OA
BRANCH   7   8
ATOM      8  C1  GCD d 901       6.710 -11.212  31.894  0.00  0.00     0.298 C 
ATOM      9  C2  GCD d 901       6.987 -12.303  32.881  0.00  0.00     0.206 C 
ATOM     10  C3  GCD d 901       6.170 -13.545  32.380  0.00  0.00     0.177 C 
ATOM     11  C4  GCD d 901       4.770 -13.300  31.779  0.00  0.00     0.051 C 
ATOM     12  C5  GCD d 901       4.302 -12.038  31.689  0.00  0.00     0.144 C 
ATOM     13  O5  GCD d 901       5.237 -10.892  31.969  0.00  0.00    -0.311 OA
BRANCH   9  14
ATOM     14  O2  GCD d 901       8.415 -12.619  32.954  0.00  0.00    -0.388 OA
ATOM     15  H   GCD d 901       8.625 -12.965  33.836  0.00  0.00     0.210 HD
ENDBRANCH   9  14
BRANCH  10  16
ATOM     16  O3  GCD d 901       6.378 -14.591  33.311  0.00  0.00    -0.389 OA
ATOM     17  H   GCD d 901       5.660 -15.238  33.236  0.00  0.00     0.210 HD
ENDBRANCH  10  16
BRANCH  12  18
ATOM     18  C6  GCD d 901       2.951 -11.676  31.125  0.00  0.00     0.200 C 
ATOM     19  O6B GCD d 901       2.870 -10.417  30.881  0.00  0.00    -0.645 OA
BRANCH  18  20
ATOM     20  O6A GCD d 901       2.028 -12.572  31.220  0.00  0.00    -0.771 OA
ATOM     21  H   GCD d 901       1.131 -12.337  31.083  0.00  0.00     0.167 HD
ENDBRANCH  18  20
ENDBRANCH  12  18
ENDBRANCH   7   8
ENDBRANCH   5   7
BRANCH   1  22
ATOM     22  O4  NAG d 902       5.068  -8.236  31.868  0.00  0.00    -0.390 OA
ATOM     23  H   NAG d 902       4.642  -7.806  32.625  0.00  0.00     0.210 HD
ENDBRANCH   1  22
BRANCH   6  24
ATOM     24  N2  NAG d 902       9.739  -9.526  30.800  0.00  0.00    -0.349 N 
ATOM     25  C7  NAG d 902      11.048  -9.574  31.377  0.00  0.00     0.214 C 
ATOM     26  O7  NAG d 902      11.505  -8.712  32.178  0.00  0.00    -0.274 OA
ATOM     27  C8  NAG d 902      11.827 -10.805  30.958  0.00  0.00     0.117 C 
ATOM     28  H   NAG d 902       9.437 -10.219  30.168  0.00  0.00     0.163 HD
ENDBRANCH   6  24
BRANCH   4  29
ATOM     29  C6  NAG d 902       5.576  -5.487  31.202  0.00  0.00     0.198 C 
BRANCH  29  30
ATOM     30  O6  NAG d 902       4.161  -5.775  31.043  0.00  0.00    -0.398 OA
ATOM     31  H   NAG d 902       3.915  -6.516  31.619  0.00  0.00     0.209 HD
ENDBRANCH  29  30
ENDBRANCH   4  29
BRANCH   3  32
ATOM     32  O1  NAG d 902      10.187  -6.726  30.048  0.00  0.00    -0.369 OA
ATOM     33  H   NAG d 902      10.181  -5.929  29.495  0.00  0.00     0.212 HD
ENDBRANCH   3  32
TORSDOF 11
ENDMDL
MODEL 35
REMARK VINA RESULT:      -6.5      1.569      2.208
REMARK  11 active torsions:
REMARK  status: ('A' for Active; 'I' for Inactive)
REMARK    1  A    between atoms: C4_1  and  O4_9 
REMARK    2  A    between atoms: O6_3  and  C6_15 
REMARK    3  A    between atoms: C1_4  and  O1_21 
REMARK    4  A    between atoms: O2_6  and  C2_13 
REMARK       I    between atoms: C7_7  and  N2_10 
REMARK    5  A    between atoms: O3_8  and  C1_12 
REMARK    6  A    between atoms: O3_8  and  C3_16 
REMARK    7  A    between atoms: N2_10  and  C2_20 
REMARK    8  A    between atoms: C5_11  and  C6_15 
REMARK    9  A    between atoms: C5_18  and  C6_25 
REMARK   10  A    between atoms: O3_22  and  C3_24 
REMARK   11  A    between atoms: O6A_23  and  C6_25 
ROOT
ATOM      1  C4  NAG d 902       7.380  -7.754  32.307  0.00  0.00     0.180 C 
ATOM      2  O5  NAG d 902       9.664  -7.161  31.555  0.00  0.00    -0.349 OA
ATOM      3  C1  NAG d 902       9.734  -8.338  30.634  0.00  0.00     0.282 C 
ATOM      4  C5  NAG d 902       8.261  -6.646  31.759  0.00  0.00     0.179 C 
ATOM      5  C3  NAG d 902       7.426  -8.966  31.339  0.00  0.00     0.183 C 
ATOM      6  C2  NAG d 902       8.865  -9.474  31.190  0.00  0.00     0.171 C 
ENDROOT
BRANCH   5   7
ATOM      7  O3  NAG d 902       6.610 -10.056  31.832  0.00  0.00    -0.348 OA
BRANCH   7   8
ATOM      8  C1  GCD d 901       5.332 -10.299  31.279  0.00  0.00     0.298 C 
ATOM      9  C2  GCD d 901       5.409 -10.768  29.859  0.00  0.00     0.206 C 
ATOM     10  C3  GCD d 901       3.924 -10.999  29.408  0.00  0.00     0.177 C 
ATOM     11  C4  GCD d 901       2.938 -11.599  30.432  0.00  0.00     0.051 C 
ATOM     12  C5  GCD d 901       3.373 -11.890  31.676  0.00  0.00     0.144 C 
ATOM     13  O5  GCD d 901       4.740 -11.420  32.099  0.00  0.00    -0.311 OA
BRANCH   9  14
ATOM     14  O2  GCD d 901       6.064  -9.783  28.997  0.00  0.00    -0.388 OA
ATOM     15  H   GCD d 901       5.967 -10.050  28.069  0.00  0.00     0.210 HD
ENDBRANCH   9  14
BRANCH  10  16
ATOM     16  O3  GCD d 901       3.956 -11.479  28.077  0.00  0.00    -0.389 OA
ATOM     17  H   GCD d 901       4.514 -10.898  27.537  0.00  0.00     0.210 HD
ENDBRANCH  10  16
BRANCH  12  18
ATOM     18  C6  GCD d 901       2.505 -12.481  32.759  0.00  0.00     0.200 C 
ATOM     19  O6B GCD d 901       2.627 -11.830  33.860  0.00  0.00    -0.645 OA
BRANCH  18  20
ATOM     20  O6A GCD d 901       2.008 -13.647  32.526  0.00  0.00    -0.771 OA
ATOM     21  H   GCD d 901       1.901 -14.260  33.227  0.00  0.00     0.167 HD
ENDBRANCH  18  20
ENDBRANCH  12  18
ENDBRANCH   7   8
ENDBRANCH   5   7
BRANCH   1  22
ATOM     22  O4  NAG d 902       6.034  -7.251  32.477  0.00  0.00    -0.390 OA
ATOM     23  H   NAG d 902       5.415  -7.807  31.979  0.00  0.00     0.210 HD
ENDBRANCH   1  22
BRANCH   6  24
ATOM     24  N2  NAG d 902       8.855 -10.700  30.293  0.00  0.00    -0.349 N 
ATOM     25  C7  NAG d 902       9.043 -11.982  30.903  0.00  0.00     0.214 C 
ATOM     26  O7  NAG d 902       9.235 -12.163  32.137  0.00  0.00    -0.274 OA
ATOM     27  C8  NAG d 902       8.944 -13.122  29.908  0.00  0.00     0.117 C 
ATOM     28  H   NAG d 902       8.723 -10.615  29.321  0.00  0.00     0.163 HD
ENDBRANCH   6  24
BRANCH   4  29
ATOM     29  C6  NAG d 902       8.255  -5.442  32.702  0.00  0.00     0.198 C 
BRANCH  29  30
ATOM     30  O6  NAG d 902       7.944  -5.778  34.081  0.00  0.00    -0.398 OA
ATOM     31  H   NAG d 902       7.143  -5.305  34.356  0.00  0.00     0.209 HD
ENDBRANCH  29  30
ENDBRANCH   4  29
BRANCH   3  32
ATOM     32  O1  NAG d 902      11.073  -8.787  30.466  0.00  0.00    -0.369 OA
ATOM     33  H   NAG d 902      11.310  -8.753  29.525  0.00  0.00     0.212 HD
ENDBRANCH   3  32
TORSDOF 11
ENDMDL
MODEL 36
REMARK VINA RESULT:      -6.5      2.225      4.072
REMARK  11 active torsions:
REMARK  status: ('A' for Active; 'I' for Inactive)
REMARK    1  A    between atoms: C4_1  and  O4_9 
REMARK    2  A    between atoms: O6_3  and  C6_15 
REMARK    3  A    between atoms: C1_4  and  O1_21 
REMARK    4  A    between atoms: O2_6  and  C2_13 
REMARK       I    between atoms: C7_7  and  N2_10 
REMARK    5  A    between atoms: O3_8  and  C1_12 
REMARK    6  A    between atoms: O3_8  and  C3_16 
REMARK    7  A    between atoms: N2_10  and  C2_20 
REMARK    8  A    between atoms: C5_11  and  C6_15 
REMARK    9  A    between atoms: C5_18  and  C6_25 
REMARK   10  A    between atoms: O3_22  and  C3_24 
REMARK   11  A    between atoms: O6A_23  and  C6_25 
ROOT
ATOM      1  C4  NAG d 902       9.188 -10.085  30.453  0.00  0.00     0.180 C 
ATOM      2  O5  NAG d 902      10.278  -7.876  30.701  0.00  0.00    -0.349 OA
ATOM      3  C1  NAG d 902       8.969  -7.185  30.921  0.00  0.00     0.282 C 
ATOM      4  C5  NAG d 902      10.280  -9.310  31.167  0.00  0.00     0.179 C 
ATOM      5  C3  NAG d 902       7.824  -9.388  30.702  0.00  0.00     0.183 C 
ATOM      6  C2  NAG d 902       7.860  -7.946  30.183  0.00  0.00     0.171 C 
ENDROOT
BRANCH   5   7
ATOM      7  O3  NAG d 902       6.752 -10.087  30.023  0.00  0.00    -0.348 OA
BRANCH   7   8
ATOM      8  C1  GCD d 901       5.650 -10.587  30.754  0.00  0.00     0.298 C 
ATOM      9  C2  GCD d 901       4.457 -10.833  29.883  0.00  0.00     0.206 C 
ATOM     10  C3  GCD d 901       3.343 -11.389  30.839  0.00  0.00     0.177 C 
ATOM     11  C4  GCD d 901       3.767 -12.355  31.964  0.00  0.00     0.051 C 
ATOM     12  C5  GCD d 901       5.070 -12.678  32.102  0.00  0.00     0.144 C 
ATOM     13  O5  GCD d 901       6.097 -11.921  31.303  0.00  0.00    -0.311 OA
BRANCH   9  14
ATOM     14  O2  GCD d 901       4.006  -9.607  29.222  0.00  0.00    -0.388 OA
ATOM     15  H   GCD d 901       4.732  -9.239  28.694  0.00  0.00     0.210 HD
ENDBRANCH   9  14
BRANCH  10  16
ATOM     16  O3  GCD d 901       2.206 -11.669  30.043  0.00  0.00    -0.389 OA
ATOM     17  H   GCD d 901       2.273 -11.188  29.204  0.00  0.00     0.210 HD
ENDBRANCH  10  16
BRANCH  12  18
ATOM     18  C6  GCD d 901       5.602 -13.612  33.160  0.00  0.00     0.200 C 
ATOM     19  O6B GCD d 901       5.808 -12.993  34.266  0.00  0.00    -0.645 OA
BRANCH  18  20
ATOM     20  O6A GCD d 901       6.014 -14.765  32.756  0.00  0.00    -0.771 OA
ATOM     21  H   GCD d 901       5.404 -15.468  32.643  0.00  0.00     0.167 HD
ENDBRANCH  18  20
ENDBRANCH  12  18
ENDBRANCH   7   8
ENDBRANCH   5   7
BRANCH   1  22
ATOM     22  O4  NAG d 902       9.188 -11.453  30.925  0.00  0.00    -0.390 OA
ATOM     23  H   NAG d 902       9.885 -11.566  31.590  0.00  0.00     0.210 HD
ENDBRANCH   1  22
BRANCH   6  24
ATOM     24  N2  NAG d 902       6.488  -7.326  30.382  0.00  0.00    -0.349 N 
ATOM     25  C7  NAG d 902       6.019  -6.398  29.397  0.00  0.00     0.214 C 
ATOM     26  O7  NAG d 902       6.677  -6.046  28.380  0.00  0.00    -0.274 OA
ATOM     27  C8  NAG d 902       4.613  -5.907  29.681  0.00  0.00     0.117 C 
ATOM     28  H   NAG d 902       5.938  -7.555  31.166  0.00  0.00     0.163 HD
ENDBRANCH   6  24
BRANCH   4  29
ATOM     29  C6  NAG d 902      11.643  -9.960  30.924  0.00  0.00     0.198 C 
BRANCH  29  30
ATOM     30  O6  NAG d 902      12.041 -10.897  31.960  0.00  0.00    -0.398 OA
ATOM     31  H   NAG d 902      12.582 -11.601  31.569  0.00  0.00     0.209 HD
ENDBRANCH  29  30
ENDBRANCH   4  29
BRANCH   3  32
ATOM     32  O1  NAG d 902       9.014  -5.835  30.473  0.00  0.00    -0.369 OA
ATOM     33  H   NAG d 902       8.112  -5.524  30.296  0.00  0.00     0.212 HD
ENDBRANCH   3  32
TORSDOF 11
ENDMDL
MODEL 37
REMARK VINA RESULT:      -6.5      3.905      7.364
REMARK  11 active torsions:
REMARK  status: ('A' for Active; 'I' for Inactive)
REMARK    1  A    between atoms: C4_1  and  O4_9 
REMARK    2  A    between atoms: O6_3  and  C6_15 
REMARK    3  A    between atoms: C1_4  and  O1_21 
REMARK    4  A    between atoms: O2_6  and  C2_13 
REMARK       I    between atoms: C7_7  and  N2_10 
REMARK    5  A    between atoms: O3_8  and  C1_12 
REMARK    6  A    between atoms: O3_8  and  C3_16 
REMARK    7  A    between atoms: N2_10  and  C2_20 
REMARK    8  A    between atoms: C5_11  and  C6_15 
REMARK    9  A    between atoms: C5_18  and  C6_25 
REMARK   10  A    between atoms: O3_22  and  C3_24 
REMARK   11  A    between atoms: O6A_23  and  C6_25 
ROOT
ATOM      1  C4  NAG d 902       2.321 -11.270  32.656  0.00  0.00     0.180 C 
ATOM      2  O5  NAG d 902       0.171 -10.266  33.362  0.00  0.00    -0.349 OA
ATOM      3  C1  NAG d 902       0.051  -9.479  32.095  0.00  0.00     0.282 C 
ATOM      4  C5  NAG d 902       0.930 -11.558  33.191  0.00  0.00     0.179 C 
ATOM      5  C3  NAG d 902       2.201 -10.479  31.326  0.00  0.00     0.183 C 
ATOM      6  C2  NAG d 902       1.452  -9.161  31.557  0.00  0.00     0.171 C 
ENDROOT
BRANCH   5   7
ATOM      7  O3  NAG d 902       3.509 -10.168  30.787  0.00  0.00    -0.348 OA
BRANCH   7   8
ATOM      8  C1  GCD d 901       3.834 -10.516  29.456  0.00  0.00     0.298 C 
ATOM      9  C2  GCD d 901       4.983 -11.473  29.385  0.00  0.00     0.206 C 
ATOM     10  C3  GCD d 901       5.201 -11.760  27.857  0.00  0.00     0.177 C 
ATOM     11  C4  GCD d 901       3.956 -11.884  26.956  0.00  0.00     0.051 C 
ATOM     12  C5  GCD d 901       2.729 -11.730  27.498  0.00  0.00     0.144 C 
ATOM     13  O5  GCD d 901       2.616 -11.223  28.911  0.00  0.00    -0.311 OA
BRANCH   9  14
ATOM     14  O2  GCD d 901       6.195 -10.911  29.983  0.00  0.00    -0.388 OA
ATOM     15  H   GCD d 901       6.279  -9.979  29.729  0.00  0.00     0.210 HD
ENDBRANCH   9  14
BRANCH  10  16
ATOM     16  O3  GCD d 901       6.261 -12.692  27.750  0.00  0.00    -0.389 OA
ATOM     17  H   GCD d 901       7.081 -12.287  28.071  0.00  0.00     0.210 HD
ENDBRANCH  10  16
BRANCH  12  18
ATOM     18  C6  GCD d 901       1.442 -11.832  26.719  0.00  0.00     0.200 C 
ATOM     19  O6B GCD d 901       1.638 -11.623  25.467  0.00  0.00    -0.645 OA
BRANCH  18  20
ATOM     20  O6A GCD d 901       0.351 -11.838  27.407  0.00  0.00    -0.771 OA
ATOM     21  H   GCD d 901      -0.003 -12.648  27.717  0.00  0.00     0.167 HD
ENDBRANCH  18  20
ENDBRANCH  12  18
ENDBRANCH   7   8
ENDBRANCH   5   7
BRANCH   1  22
ATOM     22  O4  NAG d 902       3.030 -12.519  32.477  0.00  0.00    -0.390 OA
ATOM     23  H   NAG d 902       3.570 -12.699  33.262  0.00  0.00     0.210 HD
ENDBRANCH   1  22
BRANCH   6  24
ATOM     24  N2  NAG d 902       1.418  -8.389  30.249  0.00  0.00    -0.349 N 
ATOM     25  C7  NAG d 902       1.453  -6.958  30.311  0.00  0.00     0.214 C 
ATOM     26  O7  NAG d 902       1.492  -6.292  31.382  0.00  0.00    -0.274 OA
ATOM     27  C8  NAG d 902       1.482  -6.315  28.939  0.00  0.00     0.117 C 
ATOM     28  H   NAG d 902       1.374  -8.858  29.385  0.00  0.00     0.163 HD
ENDBRANCH   6  24
BRANCH   4  29
ATOM     29  C6  NAG d 902       1.014 -12.319  34.515  0.00  0.00     0.198 C 
BRANCH  29  30
ATOM     30  O6  NAG d 902       0.859 -13.757  34.376  0.00  0.00    -0.398 OA
ATOM     31  H   NAG d 902       0.651 -13.972  33.454  0.00  0.00     0.209 HD
ENDBRANCH  29  30
ENDBRANCH   4  29
BRANCH   3  32
ATOM     32  O1  NAG d 902      -0.677  -8.274  32.300  0.00  0.00    -0.369 OA
ATOM     33  H   NAG d 902      -1.356  -8.185  31.612  0.00  0.00     0.212 HD
ENDBRANCH   3  32
TORSDOF 11
ENDMDL
MODEL 38
REMARK VINA RESULT:      -6.4      2.578      5.246
REMARK  11 active torsions:
REMARK  status: ('A' for Active; 'I' for Inactive)
REMARK    1  A    between atoms: C4_1  and  O4_9 
REMARK    2  A    between atoms: O6_3  and  C6_15 
REMARK    3  A    between atoms: C1_4  and  O1_21 
REMARK    4  A    between atoms: O2_6  and  C2_13 
REMARK       I    between atoms: C7_7  and  N2_10 
REMARK    5  A    between atoms: O3_8  and  C1_12 
REMARK    6  A    between atoms: O3_8  and  C3_16 
REMARK    7  A    between atoms: N2_10  and  C2_20 
REMARK    8  A    between atoms: C5_11  and  C6_15 
REMARK    9  A    between atoms: C5_18  and  C6_25 
REMARK   10  A    between atoms: O3_22  and  C3_24 
REMARK   11  A    between atoms: O6A_23  and  C6_25 
ROOT
ATOM      1  C4  NAG d 902       7.260 -11.754  29.324  0.00  0.00     0.180 C 
ATOM      2  O5  NAG d 902       9.153 -12.997  30.326  0.00  0.00    -0.349 OA
ATOM      3  C1  NAG d 902       9.458 -11.886  31.282  0.00  0.00     0.282 C 
ATOM      4  C5  NAG d 902       7.697 -13.070  29.942  0.00  0.00     0.179 C 
ATOM      5  C3  NAG d 902       7.547 -10.603  30.324  0.00  0.00     0.183 C 
ATOM      6  C2  NAG d 902       9.043 -10.548  30.657  0.00  0.00     0.171 C 
ENDROOT
BRANCH   5   7
ATOM      7  O3  NAG d 902       7.160  -9.323  29.767  0.00  0.00    -0.348 OA
BRANCH   7   8
ATOM      8  C1  GCD d 901       6.252  -8.489  30.457  0.00  0.00     0.298 C 
ATOM      9  C2  GCD d 901       5.107  -9.257  31.041  0.00  0.00     0.206 C 
ATOM     10  C3  GCD d 901       4.213  -8.195  31.772  0.00  0.00     0.177 C 
ATOM     11  C4  GCD d 901       4.917  -7.048  32.526  0.00  0.00     0.051 C 
ATOM     12  C5  GCD d 901       6.264  -6.983  32.521  0.00  0.00     0.144 C 
ATOM     13  O5  GCD d 901       7.034  -7.896  31.604  0.00  0.00    -0.311 OA
BRANCH   9  14
ATOM     14  O2  GCD d 901       4.339  -9.955  30.008  0.00  0.00    -0.388 OA
ATOM     15  H   GCD d 901       4.943 -10.283  29.322  0.00  0.00     0.210 HD
ENDBRANCH   9  14
BRANCH  10  16
ATOM     16  O3  GCD d 901       3.134  -8.891  32.370  0.00  0.00    -0.389 OA
ATOM     17  H   GCD d 901       2.428  -8.264  32.590  0.00  0.00     0.210 HD
ENDBRANCH  10  16
BRANCH  12  18
ATOM     18  C6  GCD d 901       7.062  -5.913  33.223  0.00  0.00     0.200 C 
ATOM     19  O6B GCD d 901       7.894  -5.352  32.421  0.00  0.00    -0.645 OA
BRANCH  18  20
ATOM     20  O6A GCD d 901       7.001  -5.901  34.511  0.00  0.00    -0.771 OA
ATOM     21  H   GCD d 901       6.922  -5.087  34.969  0.00  0.00     0.167 HD
ENDBRANCH  18  20
ENDBRANCH  12  18
ENDBRANCH   7   8
ENDBRANCH   5   7
BRANCH   1  22
ATOM     22  O4  NAG d 902       5.857 -11.832  28.980  0.00  0.00    -0.390 OA
ATOM     23  H   NAG d 902       5.484 -12.656  29.330  0.00  0.00     0.210 HD
ENDBRANCH   1  22
BRANCH   6  24
ATOM     24  N2  NAG d 902       9.289  -9.367  31.581  0.00  0.00    -0.349 N 
ATOM     25  C7  NAG d 902      10.543  -8.683  31.479  0.00  0.00     0.214 C 
ATOM     26  O7  NAG d 902      11.468  -9.005  30.683  0.00  0.00    -0.274 OA
ATOM     27  C8  NAG d 902      10.633  -7.486  32.406  0.00  0.00     0.117 C 
ATOM     28  H   NAG d 902       8.606  -9.081  32.230  0.00  0.00     0.163 HD
ENDBRANCH   6  24
BRANCH   4  29
ATOM     29  C6  NAG d 902       7.447 -14.225  28.972  0.00  0.00     0.198 C 
BRANCH  29  30
ATOM     30  O6  NAG d 902       8.357 -14.249  27.839  0.00  0.00    -0.398 OA
ATOM     31  H   NAG d 902       8.856 -15.081  27.842  0.00  0.00     0.209 HD
ENDBRANCH  29  30
ENDBRANCH   4  29
BRANCH   3  32
ATOM     32  O1  NAG d 902      10.839 -11.858  31.621  0.00  0.00    -0.369 OA
ATOM     33  H   NAG d 902      11.094 -12.709  32.011  0.00  0.00     0.212 HD
ENDBRANCH   3  32
TORSDOF 11
ENDMDL
MODEL 39
REMARK VINA RESULT:      -6.4      2.841      3.373
REMARK  11 active torsions:
REMARK  status: ('A' for Active; 'I' for Inactive)
REMARK    1  A    between atoms: C4_1  and  O4_9 
REMARK    2  A    between atoms: O6_3  and  C6_15 
REMARK    3  A    between atoms: C1_4  and  O1_21 
REMARK    4  A    between atoms: O2_6  and  C2_13 
REMARK       I    between atoms: C7_7  and  N2_10 
REMARK    5  A    between atoms: O3_8  and  C1_12 
REMARK    6  A    between atoms: O3_8  and  C3_16 
REMARK    7  A    between atoms: N2_10  and  C2_20 
REMARK    8  A    between atoms: C5_11  and  C6_15 
REMARK    9  A    between atoms: C5_18  and  C6_25 
REMARK   10  A    between atoms: O3_22  and  C3_24 
REMARK   11  A    between atoms: O6A_23  and  C6_25 
ROOT
ATOM      1  C4  NAG d 902       9.347  -7.152  32.857  0.00  0.00     0.180 C 
ATOM      2  O5  NAG d 902      11.511  -8.149  32.184  0.00  0.00    -0.349 OA
ATOM      3  C1  NAG d 902      10.859  -9.032  31.167  0.00  0.00     0.282 C 
ATOM      4  C5  NAG d 902      10.769  -6.857  32.415  0.00  0.00     0.179 C 
ATOM      5  C3  NAG d 902       8.657  -8.044  31.791  0.00  0.00     0.183 C 
ATOM      6  C2  NAG d 902       9.429  -9.358  31.616  0.00  0.00     0.171 C 
ENDROOT
BRANCH   5   7
ATOM      7  O3  NAG d 902       7.300  -8.365  32.182  0.00  0.00    -0.348 OA
BRANCH   7   8
ATOM      8  C1  GCD d 901       6.211  -7.646  31.638  0.00  0.00     0.298 C 
ATOM      9  C2  GCD d 901       6.078  -7.849  30.161  0.00  0.00     0.206 C 
ATOM     10  C3  GCD d 901       4.831  -7.001  29.727  0.00  0.00     0.177 C 
ATOM     11  C4  GCD d 901       3.615  -6.959  30.676  0.00  0.00     0.051 C 
ATOM     12  C5  GCD d 901       3.665  -7.632  31.844  0.00  0.00     0.144 C 
ATOM     13  O5  GCD d 901       4.977  -8.220  32.291  0.00  0.00    -0.311 OA
BRANCH   9  14
ATOM     14  O2  GCD d 901       7.276  -7.411  29.443  0.00  0.00    -0.388 OA
ATOM     15  H   GCD d 901       7.020  -6.818  28.719  0.00  0.00     0.210 HD
ENDBRANCH   9  14
BRANCH  10  16
ATOM     16  O3  GCD d 901       4.650  -7.197  28.337  0.00  0.00    -0.389 OA
ATOM     17  H   GCD d 901       4.086  -7.973  28.190  0.00  0.00     0.210 HD
ENDBRANCH  10  16
BRANCH  12  18
ATOM     18  C6  GCD d 901       2.540  -7.668  32.848  0.00  0.00     0.200 C 
ATOM     19  O6B GCD d 901       2.439  -8.828  33.392  0.00  0.00    -0.645 OA
BRANCH  18  20
ATOM     20  O6A GCD d 901       1.712  -6.681  32.821  0.00  0.00    -0.771 OA
ATOM     21  H   GCD d 901       1.588  -6.152  33.584  0.00  0.00     0.167 HD
ENDBRANCH  18  20
ENDBRANCH  12  18
ENDBRANCH   7   8
ENDBRANCH   5   7
BRANCH   1  22
ATOM     22  O4  NAG d 902       8.641  -5.904  33.054  0.00  0.00    -0.390 OA
ATOM     23  H   NAG d 902       9.196  -5.168  32.755  0.00  0.00     0.210 HD
ENDBRANCH   1  22
BRANCH   6  24
ATOM     24  N2  NAG d 902       8.683 -10.227  30.618  0.00  0.00    -0.349 N 
ATOM     25  C7  NAG d 902       8.655 -11.640  30.846  0.00  0.00     0.214 C 
ATOM     26  O7  NAG d 902       9.225 -12.218  31.813  0.00  0.00    -0.274 OA
ATOM     27  C8  NAG d 902       7.824 -12.382  29.818  0.00  0.00     0.117 C 
ATOM     28  H   NAG d 902       8.232  -9.830  29.838  0.00  0.00     0.163 HD
ENDBRANCH   6  24
BRANCH   4  29
ATOM     29  C6  NAG d 902      11.485  -5.996  33.456  0.00  0.00     0.198 C 
BRANCH  29  30
ATOM     30  O6  NAG d 902      10.944  -6.125  34.798  0.00  0.00    -0.398 OA
ATOM     31  H   NAG d 902       9.989  -6.289  34.747  0.00  0.00     0.209 HD
ENDBRANCH  29  30
ENDBRANCH   4  29
BRANCH   3  32
ATOM     32  O1  NAG d 902      11.595 -10.235  30.976  0.00  0.00    -0.369 OA
ATOM     33  H   NAG d 902      11.326 -10.887  31.643  0.00  0.00     0.212 HD
ENDBRANCH   3  32
TORSDOF 11
ENDMDL
MODEL 40
REMARK VINA RESULT:      -6.4      3.163      5.047
REMARK  11 active torsions:
REMARK  status: ('A' for Active; 'I' for Inactive)
REMARK    1  A    between atoms: C4_1  and  O4_9 
REMARK    2  A    between atoms: O6_3  and  C6_15 
REMARK    3  A    between atoms: C1_4  and  O1_21 
REMARK    4  A    between atoms: O2_6  and  C2_13 
REMARK       I    between atoms: C7_7  and  N2_10 
REMARK    5  A    between atoms: O3_8  and  C1_12 
REMARK    6  A    between atoms: O3_8  and  C3_16 
REMARK    7  A    between atoms: N2_10  and  C2_20 
REMARK    8  A    between atoms: C5_11  and  C6_15 
REMARK    9  A    between atoms: C5_18  and  C6_25 
REMARK   10  A    between atoms: O3_22  and  C3_24 
REMARK   11  A    between atoms: O6A_23  and  C6_25 
ROOT
ATOM      1  C4  NAG d 902       5.579 -11.197  30.369  0.00  0.00     0.180 C 
ATOM      2  O5  NAG d 902       5.729 -12.818  32.234  0.00  0.00    -0.349 OA
ATOM      3  C1  NAG d 902       4.245 -12.823  32.432  0.00  0.00     0.282 C 
ATOM      4  C5  NAG d 902       6.140 -12.537  30.811  0.00  0.00     0.179 C 
ATOM      5  C3  NAG d 902       4.038 -11.208  30.544  0.00  0.00     0.183 C 
ATOM      6  C2  NAG d 902       3.670 -11.464  32.010  0.00  0.00     0.171 C 
ENDROOT
BRANCH   5   7
ATOM      7  O3  NAG d 902       3.461  -9.939  30.148  0.00  0.00    -0.348 OA
BRANCH   7   8
ATOM      8  C1  GCD d 901       2.644  -9.854  28.998  0.00  0.00     0.298 C 
ATOM      9  C2  GCD d 901       3.199  -8.911  27.976  0.00  0.00     0.206 C 
ATOM     10  C3  GCD d 901       2.189  -8.944  26.776  0.00  0.00     0.177 C 
ATOM     11  C4  GCD d 901       1.551 -10.297  26.400  0.00  0.00     0.051 C 
ATOM     12  C5  GCD d 901       1.864 -11.397  27.117  0.00  0.00     0.144 C 
ATOM     13  O5  GCD d 901       2.649 -11.237  28.392  0.00  0.00    -0.311 OA
BRANCH   9  14
ATOM     14  O2  GCD d 901       3.327  -7.552  28.506  0.00  0.00    -0.388 OA
ATOM     15  H   GCD d 901       4.245  -7.396  28.779  0.00  0.00     0.210 HD
ENDBRANCH   9  14
BRANCH  10  16
ATOM     16  O3  GCD d 901       2.699  -8.088  25.771  0.00  0.00    -0.389 OA
ATOM     17  H   GCD d 901       3.531  -8.451  25.429  0.00  0.00     0.210 HD
ENDBRANCH  10  16
BRANCH  12  18
ATOM     18  C6  GCD d 901       1.308 -12.772  26.842  0.00  0.00     0.200 C 
ATOM     19  O6B GCD d 901       1.087 -12.942  25.588  0.00  0.00    -0.645 OA
BRANCH  18  20
ATOM     20  O6A GCD d 901       0.895 -13.441  27.864  0.00  0.00    -0.771 OA
ATOM     21  H   GCD d 901       0.286 -14.144  27.749  0.00  0.00     0.167 HD
ENDBRANCH  18  20
ENDBRANCH  12  18
ENDBRANCH   7   8
ENDBRANCH   5   7
BRANCH   1  22
ATOM     22  O4  NAG d 902       5.964 -10.950  28.995  0.00  0.00    -0.390 OA
ATOM     23  H   NAG d 902       6.422 -11.729  28.643  0.00  0.00     0.210 HD
ENDBRANCH   1  22
BRANCH   6  24
ATOM     24  N2  NAG d 902       2.159 -11.397  32.149  0.00  0.00    -0.349 N 
ATOM     25  C7  NAG d 902       1.618 -10.894  33.376  0.00  0.00     0.214 C 
ATOM     26  O7  NAG d 902       2.312 -10.518  34.360  0.00  0.00    -0.274 OA
ATOM     27  C8  NAG d 902       0.104 -10.817  33.358  0.00  0.00     0.117 C 
ATOM     28  H   NAG d 902       1.570 -11.691  31.417  0.00  0.00     0.163 HD
ENDBRANCH   6  24
BRANCH   4  29
ATOM     29  C6  NAG d 902       7.662 -12.552  30.671  0.00  0.00     0.198 C 
BRANCH  29  30
ATOM     30  O6  NAG d 902       8.125 -12.740  29.307  0.00  0.00    -0.398 OA
ATOM     31  H   NAG d 902       8.108 -13.685  29.087  0.00  0.00     0.209 HD
ENDBRANCH  29  30
ENDBRANCH   4  29
BRANCH   3  32
ATOM     32  O1  NAG d 902       3.903 -13.098  33.785  0.00  0.00    -0.369 OA
ATOM     33  H   NAG d 902       3.376 -13.912  33.826  0.00  0.00     0.212 HD
ENDBRANCH   3  32
TORSDOF 11
ENDMDL
MODEL 41
REMARK VINA RESULT:      -6.4      1.982      3.352
REMARK  11 active torsions:
REMARK  status: ('A' for Active; 'I' for Inactive)
REMARK    1  A    between atoms: C4_1  and  O4_9 
REMARK    2  A    between atoms: O6_3  and  C6_15 
REMARK    3  A    between atoms: C1_4  and  O1_21 
REMARK    4  A    between atoms: O2_6  and  C2_13 
REMARK       I    between atoms: C7_7  and  N2_10 
REMARK    5  A    between atoms: O3_8  and  C1_12 
REMARK    6  A    between atoms: O3_8  and  C3_16 
REMARK    7  A    between atoms: N2_10  and  C2_20 
REMARK    8  A    between atoms: C5_11  and  C6_15 
REMARK    9  A    between atoms: C5_18  and  C6_25 
REMARK   10  A    between atoms: O3_22  and  C3_24 
REMARK   11  A    between atoms: O6A_23  and  C6_25 
ROOT
ATOM      1  C4  NAG d 902       7.623  -9.770  32.052  0.00  0.00     0.180 C 
ATOM      2  O5  NAG d 902      10.001 -10.211  31.522  0.00  0.00    -0.349 OA
ATOM      3  C1  NAG d 902       9.675 -11.509  30.851  0.00  0.00     0.282 C 
ATOM      4  C5  NAG d 902       8.887  -9.199  31.434  0.00  0.00     0.179 C 
ATOM      5  C3  NAG d 902       7.265 -11.101  31.340  0.00  0.00     0.183 C 
ATOM      6  C2  NAG d 902       8.412 -12.107  31.484  0.00  0.00     0.171 C 
ENDROOT
BRANCH   5   7
ATOM      7  O3  NAG d 902       6.071 -11.690  31.910  0.00  0.00    -0.348 OA
BRANCH   7   8
ATOM      8  C1  GCD d 901       4.909 -11.854  31.123  0.00  0.00     0.298 C 
ATOM      9  C2  GCD d 901       3.726 -11.141  31.701  0.00  0.00     0.206 C 
ATOM     10  C3  GCD d 901       2.541 -11.413  30.710  0.00  0.00     0.177 C 
ATOM     11  C4  GCD d 901       2.847 -11.429  29.198  0.00  0.00     0.051 C 
ATOM     12  C5  GCD d 901       4.113 -11.226  28.777  0.00  0.00     0.144 C 
ATOM     13  O5  GCD d 901       5.224 -11.210  29.793  0.00  0.00    -0.311 OA
BRANCH   9  14
ATOM     14  O2  GCD d 901       3.401 -11.629  33.042  0.00  0.00    -0.388 OA
ATOM     15  H   GCD d 901       2.794 -12.383  32.973  0.00  0.00     0.210 HD
ENDBRANCH   9  14
BRANCH  10  16
ATOM     16  O3  GCD d 901       1.409 -10.723  31.206  0.00  0.00    -0.389 OA
ATOM     17  H   GCD d 901       1.345 -10.854  32.164  0.00  0.00     0.210 HD
ENDBRANCH  10  16
BRANCH  12  18
ATOM     18  C6  GCD d 901       4.531 -11.215  27.329  0.00  0.00     0.200 C 
ATOM     19  O6B GCD d 901       3.921 -10.292  26.675  0.00  0.00    -0.645 OA
BRANCH  18  20
ATOM     20  O6A GCD d 901       5.189 -12.243  26.911  0.00  0.00    -0.771 OA
ATOM     21  H   GCD d 901       4.731 -12.981  26.559  0.00  0.00     0.167 HD
ENDBRANCH  18  20
ENDBRANCH  12  18
ENDBRANCH   7   8
ENDBRANCH   5   7
BRANCH   1  22
ATOM     22  O4  NAG d 902       6.558  -8.796  31.942  0.00  0.00    -0.390 OA
ATOM     23  H   NAG d 902       6.490  -8.493  31.023  0.00  0.00     0.210 HD
ENDBRANCH   1  22
BRANCH   6  24
ATOM     24  N2  NAG d 902       7.993 -13.415  30.836  0.00  0.00    -0.349 N 
ATOM     25  C7  NAG d 902       7.706 -13.409  29.433  0.00  0.00     0.214 C 
ATOM     26  O7  NAG d 902       7.760 -12.383  28.699  0.00  0.00    -0.274 OA
ATOM     27  C8  NAG d 902       7.366 -14.787  28.900  0.00  0.00     0.117 C 
ATOM     28  H   NAG d 902       7.921 -14.243  31.364  0.00  0.00     0.163 HD
ENDBRANCH   6  24
BRANCH   4  29
ATOM     29  C6  NAG d 902       9.280  -7.895  32.129  0.00  0.00     0.198 C 
BRANCH  29  30
ATOM     30  O6  NAG d 902       9.023  -7.891  33.560  0.00  0.00    -0.398 OA
ATOM     31  H   NAG d 902       9.865  -7.911  34.039  0.00  0.00     0.209 HD
ENDBRANCH  29  30
ENDBRANCH   4  29
BRANCH   3  32
ATOM     32  O1  NAG d 902      10.754 -12.430  30.953  0.00  0.00    -0.369 OA
ATOM     33  H   NAG d 902      11.532 -12.068  30.499  0.00  0.00     0.212 HD
ENDBRANCH   3  32
TORSDOF 11
ENDMDL
MODEL 42
REMARK VINA RESULT:      -6.4      3.697      6.104
REMARK  11 active torsions:
REMARK  status: ('A' for Active; 'I' for Inactive)
REMARK    1  A    between atoms: C4_1  and  O4_9 
REMARK    2  A    between atoms: O6_3  and  C6_15 
REMARK    3  A    between atoms: C1_4  and  O1_21 
REMARK    4  A    between atoms: O2_6  and  C2_13 
REMARK       I    between atoms: C7_7  and  N2_10 
REMARK    5  A    between atoms: O3_8  and  C1_12 
REMARK    6  A    between atoms: O3_8  and  C3_16 
REMARK    7  A    between atoms: N2_10  and  C2_20 
REMARK    8  A    between atoms: C5_11  and  C6_15 
REMARK    9  A    between atoms: C5_18  and  C6_25 
REMARK   10  A    between atoms: O3_22  and  C3_24 
REMARK   11  A    between atoms: O6A_23  and  C6_25 
ROOT
ATOM      1  C4  NAG d 902       4.641 -11.712  31.463  0.00  0.00     0.180 C 
ATOM      2  O5  NAG d 902       3.873 -12.850  33.524  0.00  0.00    -0.349 OA
ATOM      3  C1  NAG d 902       2.439 -12.537  33.237  0.00  0.00     0.282 C 
ATOM      4  C5  NAG d 902       4.714 -12.990  32.279  0.00  0.00     0.179 C 
ATOM      5  C3  NAG d 902       3.156 -11.400  31.138  0.00  0.00     0.183 C 
ATOM      6  C2  NAG d 902       2.352 -11.234  32.432  0.00  0.00     0.171 C 
ENDROOT
BRANCH   5   7
ATOM      7  O3  NAG d 902       3.039 -10.176  30.371  0.00  0.00    -0.348 OA
BRANCH   7   8
ATOM      8  C1  GCD d 901       2.017 -10.033  29.407  0.00  0.00     0.298 C 
ATOM      9  C2  GCD d 901       1.976  -8.655  28.823  0.00  0.00     0.206 C 
ATOM     10  C3  GCD d 901       0.807  -8.672  27.776  0.00  0.00     0.177 C 
ATOM     11  C4  GCD d 901       0.613  -9.944  26.925  0.00  0.00     0.051 C 
ATOM     12  C5  GCD d 901       1.435 -10.997  27.113  0.00  0.00     0.144 C 
ATOM     13  O5  GCD d 901       2.371 -10.989  28.293  0.00  0.00    -0.311 OA
BRANCH   9  14
ATOM     14  O2  GCD d 901       1.735  -7.639  29.850  0.00  0.00    -0.388 OA
ATOM     15  H   GCD d 901       1.336  -8.055  30.630  0.00  0.00     0.210 HD
ENDBRANCH   9  14
BRANCH  10  16
ATOM     16  O3  GCD d 901       0.760  -7.391  27.175  0.00  0.00    -0.389 OA
ATOM     17  H   GCD d 901       0.098  -7.392  26.466  0.00  0.00     0.210 HD
ENDBRANCH  10  16
BRANCH  12  18
ATOM     18  C6  GCD d 901       1.346 -12.289  26.340  0.00  0.00     0.200 C 
ATOM     19  O6B GCD d 901       2.158 -13.168  26.807  0.00  0.00    -0.645 OA
BRANCH  18  20
ATOM     20  O6A GCD d 901       0.712 -12.246  25.217  0.00  0.00    -0.771 OA
ATOM     21  H   GCD d 901       1.133 -12.534  24.431  0.00  0.00     0.167 HD
ENDBRANCH  18  20
ENDBRANCH  12  18
ENDBRANCH   7   8
ENDBRANCH   5   7
BRANCH   1  22
ATOM     22  O4  NAG d 902       5.434 -11.869  30.263  0.00  0.00    -0.390 OA
ATOM     23  H   NAG d 902       6.200 -12.432  30.453  0.00  0.00     0.210 HD
ENDBRANCH   1  22
BRANCH   6  24
ATOM     24  N2  NAG d 902       0.924 -10.861  32.070  0.00  0.00    -0.349 N 
ATOM     25  C7  NAG d 902       0.500  -9.514  32.307  0.00  0.00     0.214 C 
ATOM     26  O7  NAG d 902       1.227  -8.617  32.815  0.00  0.00    -0.274 OA
ATOM     27  C8  NAG d 902      -0.920  -9.259  31.840  0.00  0.00     0.117 C 
ATOM     28  H   NAG d 902       0.310 -11.526  31.683  0.00  0.00     0.163 HD
ENDBRANCH   6  24
BRANCH   4  29
ATOM     29  C6  NAG d 902       6.164 -13.316  32.636  0.00  0.00     0.198 C 
BRANCH  29  30
ATOM     30  O6  NAG d 902       6.827 -12.277  33.406  0.00  0.00    -0.398 OA
ATOM     31  H   NAG d 902       7.717 -12.129  33.049  0.00  0.00     0.209 HD
ENDBRANCH  29  30
ENDBRANCH   4  29
BRANCH   3  32
ATOM     32  O1  NAG d 902       1.683 -12.420  34.436  0.00  0.00    -0.369 OA
ATOM     33  H   NAG d 902       2.198 -12.775  35.179  0.00  0.00     0.212 HD
ENDBRANCH   3  32
TORSDOF 11
ENDMDL
MODEL 43
REMARK VINA RESULT:      -6.4      2.528      4.217
REMARK  11 active torsions:
REMARK  status: ('A' for Active; 'I' for Inactive)
REMARK    1  A    between atoms: C4_1  and  O4_9 
REMARK    2  A    between atoms: O6_3  and  C6_15 
REMARK    3  A    between atoms: C1_4  and  O1_21 
REMARK    4  A    between atoms: O2_6  and  C2_13 
REMARK       I    between atoms: C7_7  and  N2_10 
REMARK    5  A    between atoms: O3_8  and  C1_12 
REMARK    6  A    between atoms: O3_8  and  C3_16 
REMARK    7  A    between atoms: N2_10  and  C2_20 
REMARK    8  A    between atoms: C5_11  and  C6_15 
REMARK    9  A    between atoms: C5_18  and  C6_25 
REMARK   10  A    between atoms: O3_22  and  C3_24 
REMARK   11  A    between atoms: O6A_23  and  C6_25 
ROOT
ATOM      1  C4  NAG d 902       6.739 -12.209  28.788  0.00  0.00     0.180 C 
ATOM      2  O5  NAG d 902       7.932 -12.972  30.819  0.00  0.00    -0.349 OA
ATOM      3  C1  NAG d 902       7.320 -11.894  31.659  0.00  0.00     0.282 C 
ATOM      4  C5  NAG d 902       7.054 -13.403  29.671  0.00  0.00     0.179 C 
ATOM      5  C3  NAG d 902       6.078 -11.100  29.648  0.00  0.00     0.183 C 
ATOM      6  C2  NAG d 902       7.019 -10.672  30.780  0.00  0.00     0.171 C 
ENDROOT
BRANCH   5   7
ATOM      7  O3  NAG d 902       5.773  -9.933  28.847  0.00  0.00    -0.348 OA
BRANCH   7   8
ATOM      8  C1  GCD d 901       4.446  -9.458  28.751  0.00  0.00     0.298 C 
ATOM      9  C2  GCD d 901       3.821  -9.780  27.430  0.00  0.00     0.206 C 
ATOM     10  C3  GCD d 901       2.365  -9.200  27.496  0.00  0.00     0.177 C 
ATOM     11  C4  GCD d 901       1.598  -9.312  28.830  0.00  0.00     0.051 C 
ATOM     12  C5  GCD d 901       2.200  -9.886  29.892  0.00  0.00     0.144 C 
ATOM     13  O5  GCD d 901       3.671 -10.199  29.815  0.00  0.00    -0.311 OA
BRANCH   9  14
ATOM     14  O2  GCD d 901       4.565  -9.184  26.319  0.00  0.00    -0.388 OA
ATOM     15  H   GCD d 901       4.210  -9.514  25.478  0.00  0.00     0.210 HD
ENDBRANCH   9  14
BRANCH  10  16
ATOM     16  O3  GCD d 901       1.727  -9.517  26.273  0.00  0.00    -0.389 OA
ATOM     17  H   GCD d 901       2.385  -9.531  25.560  0.00  0.00     0.210 HD
ENDBRANCH  10  16
BRANCH  12  18
ATOM     18  C6  GCD d 901       1.551 -10.055  31.243  0.00  0.00     0.200 C 
ATOM     19  O6B GCD d 901       1.372  -8.920  31.818  0.00  0.00    -0.645 OA
BRANCH  18  20
ATOM     20  O6A GCD d 901       1.523 -11.252  31.723  0.00  0.00    -0.771 OA
ATOM     21  H   GCD d 901       1.034 -11.433  32.502  0.00  0.00     0.167 HD
ENDBRANCH  18  20
ENDBRANCH  12  18
ENDBRANCH   7   8
ENDBRANCH   5   7
BRANCH   1  22
ATOM     22  O4  NAG d 902       5.880 -12.634  27.704  0.00  0.00    -0.390 OA
ATOM     23  H   NAG d 902       6.092 -13.549  27.462  0.00  0.00     0.210 HD
ENDBRANCH   1  22
BRANCH   6  24
ATOM     24  N2  NAG d 902       6.364  -9.540  31.553  0.00  0.00    -0.349 N 
ATOM     25  C7  NAG d 902       7.042  -8.280  31.605  0.00  0.00     0.214 C 
ATOM     26  O7  NAG d 902       8.160  -8.050  31.066  0.00  0.00    -0.274 OA
ATOM     27  C8  NAG d 902       6.251  -7.222  32.347  0.00  0.00     0.117 C 
ATOM     28  H   NAG d 902       5.498  -9.670  32.004  0.00  0.00     0.163 HD
ENDBRANCH   6  24
BRANCH   4  29
ATOM     29  C6  NAG d 902       7.728 -14.508  28.857  0.00  0.00     0.198 C 
BRANCH  29  30
ATOM     30  O6  NAG d 902       8.441 -14.024  27.687  0.00  0.00    -0.398 OA
ATOM     31  H   NAG d 902       8.736 -13.113  27.842  0.00  0.00     0.209 HD
ENDBRANCH  29  30
ENDBRANCH   4  29
BRANCH   3  32
ATOM     32  O1  NAG d 902       8.178 -11.522  32.731  0.00  0.00    -0.369 OA
ATOM     33  H   NAG d 902       9.034 -11.234  32.376  0.00  0.00     0.212 HD
ENDBRANCH   3  32
TORSDOF 11
ENDMDL
MODEL 44
REMARK VINA RESULT:      -6.4      3.285      7.282
REMARK  11 active torsions:
REMARK  status: ('A' for Active; 'I' for Inactive)
REMARK    1  A    between atoms: C4_1  and  O4_9 
REMARK    2  A    between atoms: O6_3  and  C6_15 
REMARK    3  A    between atoms: C1_4  and  O1_21 
REMARK    4  A    between atoms: O2_6  and  C2_13 
REMARK       I    between atoms: C7_7  and  N2_10 
REMARK    5  A    between atoms: O3_8  and  C1_12 
REMARK    6  A    between atoms: O3_8  and  C3_16 
REMARK    7  A    between atoms: N2_10  and  C2_20 
REMARK    8  A    between atoms: C5_11  and  C6_15 
REMARK    9  A    between atoms: C5_18  and  C6_25 
REMARK   10  A    between atoms: O3_22  and  C3_24 
REMARK   11  A    between atoms: O6A_23  and  C6_25 
ROOT
ATOM      1  C4  NAG d 902       2.063 -10.914  33.511  0.00  0.00     0.180 C 
ATOM      2  O5  NAG d 902      -0.366 -10.434  33.486  0.00  0.00    -0.349 OA
ATOM      3  C1  NAG d 902      -0.248  -9.581  32.262  0.00  0.00     0.282 C 
ATOM      4  C5  NAG d 902       0.673 -11.524  33.555  0.00  0.00     0.179 C 
ATOM      5  C3  NAG d 902       2.200 -10.052  32.228  0.00  0.00     0.183 C 
ATOM      6  C2  NAG d 902       1.145  -8.939  32.220  0.00  0.00     0.171 C 
ENDROOT
BRANCH   5   7
ATOM      7  O3  NAG d 902       3.509  -9.436  32.154  0.00  0.00    -0.348 OA
BRANCH   7   8
ATOM      8  C1  GCD d 901       4.484  -9.938  31.263  0.00  0.00     0.298 C 
ATOM      9  C2  GCD d 901       5.593  -8.960  31.027  0.00  0.00     0.206 C 
ATOM     10  C3  GCD d 901       6.582  -9.672  30.038  0.00  0.00     0.177 C 
ATOM     11  C4  GCD d 901       6.829 -11.183  30.219  0.00  0.00     0.051 C 
ATOM     12  C5  GCD d 901       6.183 -11.845  31.202  0.00  0.00     0.144 C 
ATOM     13  O5  GCD d 901       5.079 -11.145  31.949  0.00  0.00    -0.311 OA
BRANCH   9  14
ATOM     14  O2  GCD d 901       5.099  -7.708  30.452  0.00  0.00    -0.388 OA
ATOM     15  H   GCD d 901       4.531  -7.258  31.097  0.00  0.00     0.210 HD
ENDBRANCH   9  14
BRANCH  10  16
ATOM     16  O3  GCD d 901       7.667  -8.789  29.817  0.00  0.00    -0.389 OA
ATOM     17  H   GCD d 901       7.568  -8.008  30.384  0.00  0.00     0.210 HD
ENDBRANCH  10  16
BRANCH  12  18
ATOM     18  C6  GCD d 901       6.346 -13.319  31.477  0.00  0.00     0.200 C 
ATOM     19  O6B GCD d 901       7.012 -13.896  30.543  0.00  0.00    -0.645 OA
BRANCH  18  20
ATOM     20  O6A GCD d 901       5.605 -13.817  32.408  0.00  0.00    -0.771 OA
ATOM     21  H   GCD d 901       5.799 -13.638  33.307  0.00  0.00     0.167 HD
ENDBRANCH  18  20
ENDBRANCH  12  18
ENDBRANCH   7   8
ENDBRANCH   5   7
BRANCH   1  22
ATOM     22  O4  NAG d 902       3.049 -11.973  33.557  0.00  0.00    -0.390 OA
ATOM     23  H   NAG d 902       3.318 -12.124  34.476  0.00  0.00     0.210 HD
ENDBRANCH   1  22
BRANCH   6  24
ATOM     24  N2  NAG d 902       1.359  -8.079  30.986  0.00  0.00    -0.349 N 
ATOM     25  C7  NAG d 902       1.753  -6.716  31.176  0.00  0.00     0.214 C 
ATOM     26  O7  NAG d 902       1.918  -6.172  32.303  0.00  0.00    -0.274 OA
ATOM     27  C8  NAG d 902       1.998  -5.991  29.867  0.00  0.00     0.117 C 
ATOM     28  H   NAG d 902       1.231  -8.449  30.083  0.00  0.00     0.163 HD
ENDBRANCH   6  24
BRANCH   4  29
ATOM     29  C6  NAG d 902       0.498 -12.364  34.820  0.00  0.00     0.198 C 
BRANCH  29  30
ATOM     30  O6  NAG d 902       0.683 -13.790  34.609  0.00  0.00    -0.398 OA
ATOM     31  H   NAG d 902       1.599 -14.032  34.822  0.00  0.00     0.209 HD
ENDBRANCH  29  30
ENDBRANCH   4  29
BRANCH   3  32
ATOM     32  O1  NAG d 902      -1.250  -8.571  32.235  0.00  0.00    -0.369 OA
ATOM     33  H   NAG d 902      -1.658  -8.497  33.112  0.00  0.00     0.212 HD
ENDBRANCH   3  32
TORSDOF 11
ENDMDL
MODEL 45
REMARK VINA RESULT:      -6.4      1.706      5.886
REMARK  11 active torsions:
REMARK  status: ('A' for Active; 'I' for Inactive)
REMARK    1  A    between atoms: C4_1  and  O4_9 
REMARK    2  A    between atoms: O6_3  and  C6_15 
REMARK    3  A    between atoms: C1_4  and  O1_21 
REMARK    4  A    between atoms: O2_6  and  C2_13 
REMARK       I    between atoms: C7_7  and  N2_10 
REMARK    5  A    between atoms: O3_8  and  C1_12 
REMARK    6  A    between atoms: O3_8  and  C3_16 
REMARK    7  A    between atoms: N2_10  and  C2_20 
REMARK    8  A    between atoms: C5_11  and  C6_15 
REMARK    9  A    between atoms: C5_18  and  C6_25 
REMARK   10  A    between atoms: O3_22  and  C3_24 
REMARK   11  A    between atoms: O6A_23  and  C6_25 
ROOT
ATOM      1  C4  NAG d 902       4.441 -11.469  30.729  0.00  0.00     0.180 C 
ATOM      2  O5  NAG d 902       4.595 -13.221  32.472  0.00  0.00    -0.349 OA
ATOM      3  C1  NAG d 902       6.036 -12.918  32.738  0.00  0.00     0.282 C 
ATOM      4  C5  NAG d 902       3.812 -12.024  31.995  0.00  0.00     0.179 C 
ATOM      5  C3  NAG d 902       5.928 -11.125  31.009  0.00  0.00     0.183 C 
ATOM      6  C2  NAG d 902       6.689 -12.378  31.458  0.00  0.00     0.171 C 
ENDROOT
BRANCH   5   7
ATOM      7  O3  NAG d 902       6.573 -10.606  29.820  0.00  0.00    -0.348 OA
BRANCH   7   8
ATOM      8  C1  GCD d 901       7.178  -9.329  29.836  0.00  0.00     0.298 C 
ATOM      9  C2  GCD d 901       6.171  -8.223  29.800  0.00  0.00     0.206 C 
ATOM     10  C3  GCD d 901       7.001  -6.892  29.835  0.00  0.00     0.177 C 
ATOM     11  C4  GCD d 901       8.260  -6.843  30.725  0.00  0.00     0.051 C 
ATOM     12  C5  GCD d 901       8.614  -7.939  31.428  0.00  0.00     0.144 C 
ATOM     13  O5  GCD d 901       7.906  -9.240  31.156  0.00  0.00    -0.311 OA
BRANCH   9  14
ATOM     14  O2  GCD d 901       5.342  -8.283  28.595  0.00  0.00    -0.388 OA
ATOM     15  H   GCD d 901       4.791  -7.487  28.541  0.00  0.00     0.210 HD
ENDBRANCH   9  14
BRANCH  10  16
ATOM     16  O3  GCD d 901       6.078  -5.818  29.838  0.00  0.00    -0.389 OA
ATOM     17  H   GCD d 901       6.560  -4.978  29.882  0.00  0.00     0.210 HD
ENDBRANCH  10  16
BRANCH  12  18
ATOM     18  C6  GCD d 901       9.819  -8.010  32.332  0.00  0.00     0.200 C 
ATOM     19  O6B GCD d 901      10.910  -7.892  31.664  0.00  0.00    -0.645 OA
BRANCH  18  20
ATOM     20  O6A GCD d 901       9.614  -8.432  33.533  0.00  0.00    -0.771 OA
ATOM     21  H   GCD d 901       9.969  -7.963  34.262  0.00  0.00     0.167 HD
ENDBRANCH  18  20
ENDBRANCH  12  18
ENDBRANCH   7   8
ENDBRANCH   5   7
BRANCH   1  22
ATOM     22  O4  NAG d 902       3.692 -10.309  30.296  0.00  0.00    -0.390 OA
ATOM     23  H   NAG d 902       2.751 -10.442  30.485  0.00  0.00     0.210 HD
ENDBRANCH   1  22
BRANCH   6  24
ATOM     24  N2  NAG d 902       8.150 -12.013  31.653  0.00  0.00    -0.349 N 
ATOM     25  C7  NAG d 902       9.085 -12.420  30.647  0.00  0.00     0.214 C 
ATOM     26  O7  NAG d 902       8.779 -13.078  29.614  0.00  0.00    -0.274 OA
ATOM     27  C8  NAG d 902      10.493 -11.935  30.928  0.00  0.00     0.117 C 
ATOM     28  H   NAG d 902       8.446 -11.512  32.447  0.00  0.00     0.163 HD
ENDBRANCH   6  24
BRANCH   4  29
ATOM     29  C6  NAG d 902       2.349 -12.393  31.748  0.00  0.00     0.198 C 
BRANCH  29  30
ATOM     30  O6  NAG d 902       2.020 -13.762  32.109  0.00  0.00    -0.398 OA
ATOM     31  H   NAG d 902       1.067 -13.906  31.993  0.00  0.00     0.209 HD
ENDBRANCH  29  30
ENDBRANCH   4  29
BRANCH   3  32
ATOM     32  O1  NAG d 902       6.734 -14.071  33.191  0.00  0.00    -0.369 OA
ATOM     33  H   NAG d 902       6.778 -14.725  32.475  0.00  0.00     0.212 HD
ENDBRANCH   3  32
TORSDOF 11
ENDMDL
MODEL 46
REMARK VINA RESULT:      -6.3      2.398      4.242
REMARK  11 active torsions:
REMARK  status: ('A' for Active; 'I' for Inactive)
REMARK    1  A    between atoms: C4_1  and  O4_9 
REMARK    2  A    between atoms: O6_3  and  C6_15 
REMARK    3  A    between atoms: C1_4  and  O1_21 
REMARK    4  A    between atoms: O2_6  and  C2_13 
REMARK       I    between atoms: C7_7  and  N2_10 
REMARK    5  A    between atoms: O3_8  and  C1_12 
REMARK    6  A    between atoms: O3_8  and  C3_16 
REMARK    7  A    between atoms: N2_10  and  C2_20 
REMARK    8  A    between atoms: C5_11  and  C6_15 
REMARK    9  A    between atoms: C5_18  and  C6_25 
REMARK   10  A    between atoms: O3_22  and  C3_24 
REMARK   11  A    between atoms: O6A_23  and  C6_25 
ROOT
ATOM      1  C4  NAG d 902       6.923 -11.280  30.158  0.00  0.00     0.180 C 
ATOM      2  O5  NAG d 902       9.115 -10.132  30.259  0.00  0.00    -0.349 OA
ATOM      3  C1  NAG d 902       8.486  -8.831  30.648  0.00  0.00     0.282 C 
ATOM      4  C5  NAG d 902       8.332 -11.335  30.721  0.00  0.00     0.179 C 
ATOM      5  C3  NAG d 902       6.256  -9.945  30.584  0.00  0.00     0.183 C 
ATOM      6  C2  NAG d 902       7.069  -8.754  30.063  0.00  0.00     0.171 C 
ENDROOT
BRANCH   5   7
ATOM      7  O3  NAG d 902       4.913  -9.843  30.053  0.00  0.00    -0.348 OA
BRANCH   7   8
ATOM      8  C1  GCD d 901       3.796  -9.917  30.916  0.00  0.00     0.298 C 
ATOM      9  C2  GCD d 901       2.524  -9.523  30.233  0.00  0.00     0.206 C 
ATOM     10  C3  GCD d 901       1.398  -9.670  31.316  0.00  0.00     0.177 C 
ATOM     11  C4  GCD d 901       1.484 -10.858  32.296  0.00  0.00     0.051 C 
ATOM     12  C5  GCD d 901       2.520 -11.716  32.205  0.00  0.00     0.144 C 
ATOM     13  O5  GCD d 901       3.675 -11.371  31.302  0.00  0.00    -0.311 OA
BRANCH   9  14
ATOM     14  O2  GCD d 901       2.581  -8.149  29.731  0.00  0.00    -0.388 OA
ATOM     15  H   GCD d 901       1.779  -7.673  29.997  0.00  0.00     0.210 HD
ENDBRANCH   9  14
BRANCH  10  16
ATOM     16  O3  GCD d 901       0.169  -9.339  30.695  0.00  0.00    -0.389 OA
ATOM     17  H   GCD d 901      -0.345  -8.763  31.283  0.00  0.00     0.210 HD
ENDBRANCH  10  16
BRANCH  12  18
ATOM     18  C6  GCD d 901       2.709 -12.913  33.103  0.00  0.00     0.200 C 
ATOM     19  O6B GCD d 901       3.879 -12.916  33.634  0.00  0.00    -0.645 OA
BRANCH  18  20
ATOM     20  O6A GCD d 901       1.832 -13.853  33.003  0.00  0.00    -0.771 OA
ATOM     21  H   GCD d 901       1.373 -13.982  32.196  0.00  0.00     0.167 HD
ENDBRANCH  18  20
ENDBRANCH  12  18
ENDBRANCH   7   8
ENDBRANCH   5   7
BRANCH   1  22
ATOM     22  O4  NAG d 902       6.178 -12.428  30.627  0.00  0.00    -0.390 OA
ATOM     23  H   NAG d 902       5.349 -12.132  31.033  0.00  0.00     0.210 HD
ENDBRANCH   1  22
BRANCH   6  24
ATOM     24  N2  NAG d 902       6.346  -7.473  30.441  0.00  0.00    -0.349 N 
ATOM     25  C7  NAG d 902       5.758  -6.697  29.391  0.00  0.00     0.214 C 
ATOM     26  O7  NAG d 902       5.814  -6.996  28.167  0.00  0.00    -0.274 OA
ATOM     27  C8  NAG d 902       5.012  -5.483  29.910  0.00  0.00     0.117 C 
ATOM     28  H   NAG d 902       6.284  -7.185  31.381  0.00  0.00     0.163 HD
ENDBRANCH   6  24
BRANCH   4  29
ATOM     29  C6  NAG d 902       9.026 -12.630  30.301  0.00  0.00     0.198 C 
BRANCH  29  30
ATOM     30  O6  NAG d 902       8.432 -13.264  29.136  0.00  0.00    -0.398 OA
ATOM     31  H   NAG d 902       7.652 -12.760  28.856  0.00  0.00     0.209 HD
ENDBRANCH  29  30
ENDBRANCH   4  29
BRANCH   3  32
ATOM     32  O1  NAG d 902       9.259  -7.725  30.197  0.00  0.00    -0.369 OA
ATOM     33  H   NAG d 902       9.498  -7.168  30.955  0.00  0.00     0.212 HD
ENDBRANCH   3  32
TORSDOF 11
ENDMDL
MODEL 47
REMARK VINA RESULT:      -6.3      3.368      6.915
REMARK  11 active torsions:
REMARK  status: ('A' for Active; 'I' for Inactive)
REMARK    1  A    between atoms: C4_1  and  O4_9 
REMARK    2  A    between atoms: O6_3  and  C6_15 
REMARK    3  A    between atoms: C1_4  and  O1_21 
REMARK    4  A    between atoms: O2_6  and  C2_13 
REMARK       I    between atoms: C7_7  and  N2_10 
REMARK    5  A    between atoms: O3_8  and  C1_12 
REMARK    6  A    between atoms: O3_8  and  C3_16 
REMARK    7  A    between atoms: N2_10  and  C2_20 
REMARK    8  A    between atoms: C5_11  and  C6_15 
REMARK    9  A    between atoms: C5_18  and  C6_25 
REMARK   10  A    between atoms: O3_22  and  C3_24 
REMARK   11  A    between atoms: O6A_23  and  C6_25 
ROOT
ATOM      1  C4  NAG d 902       0.739  -9.314  28.171  0.00  0.00     0.180 C 
ATOM      2  O5  NAG d 902       2.201  -9.512  26.182  0.00  0.00    -0.349 OA
ATOM      3  C1  NAG d 902       3.432  -9.639  27.023  0.00  0.00     0.282 C 
ATOM      4  C5  NAG d 902       0.961 -10.042  26.857  0.00  0.00     0.179 C 
ATOM      5  C3  NAG d 902       2.003  -9.468  29.058  0.00  0.00     0.183 C 
ATOM      6  C2  NAG d 902       3.228  -8.886  28.344  0.00  0.00     0.171 C 
ENDROOT
BRANCH   5   7
ATOM      7  O3  NAG d 902       1.841  -8.774  30.319  0.00  0.00    -0.348 OA
BRANCH   7   8
ATOM      8  C1  GCD d 901       1.883  -9.487  31.538  0.00  0.00     0.298 C 
ATOM      9  C2  GCD d 901       0.524  -9.927  31.986  0.00  0.00     0.206 C 
ATOM     10  C3  GCD d 901       0.752 -10.703  33.330  0.00  0.00     0.177 C 
ATOM     11  C4  GCD d 901       2.000 -11.603  33.448  0.00  0.00     0.051 C 
ATOM     12  C5  GCD d 901       2.857 -11.682  32.409  0.00  0.00     0.144 C 
ATOM     13  O5  GCD d 901       2.695 -10.728  31.255  0.00  0.00    -0.311 OA
BRANCH   9  14
ATOM     14  O2  GCD d 901      -0.373  -8.789  32.192  0.00  0.00    -0.388 OA
ATOM     15  H   GCD d 901      -1.193  -8.929  31.692  0.00  0.00     0.210 HD
ENDBRANCH   9  14
BRANCH  10  16
ATOM     16  O3  GCD d 901      -0.511 -11.168  33.769  0.00  0.00    -0.389 OA
ATOM     17  H   GCD d 901      -0.404 -12.023  34.214  0.00  0.00     0.210 HD
ENDBRANCH  10  16
BRANCH  12  18
ATOM     18  C6  GCD d 901       4.105 -12.529  32.405  0.00  0.00     0.200 C 
ATOM     19  O6B GCD d 901       4.361 -12.985  33.579  0.00  0.00    -0.645 OA
BRANCH  18  20
ATOM     20  O6A GCD d 901       4.850 -12.453  31.355  0.00  0.00    -0.771 OA
ATOM     21  H   GCD d 901       4.541 -12.004  30.593  0.00  0.00     0.167 HD
ENDBRANCH  18  20
ENDBRANCH  12  18
ENDBRANCH   7   8
ENDBRANCH   5   7
BRANCH   1  22
ATOM     22  O4  NAG d 902      -0.441  -9.848  28.817  0.00  0.00    -0.390 OA
ATOM     23  H   NAG d 902      -0.506  -9.493  29.717  0.00  0.00     0.210 HD
ENDBRANCH   1  22
BRANCH   6  24
ATOM     24  N2  NAG d 902       4.426  -8.994  29.272  0.00  0.00    -0.349 N 
ATOM     25  C7  NAG d 902       5.466  -8.018  29.145  0.00  0.00     0.214 C 
ATOM     26  O7  NAG d 902       5.465  -7.081  28.300  0.00  0.00    -0.274 OA
ATOM     27  C8  NAG d 902       6.566  -8.199  30.173  0.00  0.00     0.117 C 
ATOM     28  H   NAG d 902       4.484  -9.713  29.942  0.00  0.00     0.163 HD
ENDBRANCH   6  24
BRANCH   4  29
ATOM     29  C6  NAG d 902      -0.260  -9.892  25.950  0.00  0.00     0.198 C 
BRANCH  29  30
ATOM     30  O6  NAG d 902      -0.644 -11.119  25.273  0.00  0.00    -0.398 OA
ATOM     31  H   NAG d 902      -0.697 -10.958  24.318  0.00  0.00     0.209 HD
ENDBRANCH  29  30
ENDBRANCH   4  29
BRANCH   3  32
ATOM     32  O1  NAG d 902       4.577  -9.133  26.346  0.00  0.00    -0.369 OA
ATOM     33  H   NAG d 902       4.659  -8.181  26.517  0.00  0.00     0.212 HD
ENDBRANCH   3  32
TORSDOF 11
ENDMDL
MODEL 48
REMARK VINA RESULT:      -6.3      2.036      4.623
REMARK  11 active torsions:
REMARK  status: ('A' for Active; 'I' for Inactive)
REMARK    1  A    between atoms: C4_1  and  O4_9 
REMARK    2  A    between atoms: O6_3  and  C6_15 
REMARK    3  A    between atoms: C1_4  and  O1_21 
REMARK    4  A    between atoms: O2_6  and  C2_13 
REMARK       I    between atoms: C7_7  and  N2_10 
REMARK    5  A    between atoms: O3_8  and  C1_12 
REMARK    6  A    between atoms: O3_8  and  C3_16 
REMARK    7  A    between atoms: N2_10  and  C2_20 
REMARK    8  A    between atoms: C5_11  and  C6_15 
REMARK    9  A    between atoms: C5_18  and  C6_25 
REMARK   10  A    between atoms: O3_22  and  C3_24 
REMARK   11  A    between atoms: O6A_23  and  C6_25 
ROOT
ATOM      1  C4  NAG d 902       7.769  -9.230  30.646  0.00  0.00     0.180 C 
ATOM      2  O5  NAG d 902       8.093  -6.996  29.630  0.00  0.00    -0.349 OA
ATOM      3  C1  NAG d 902       6.628  -6.831  29.372  0.00  0.00     0.282 C 
ATOM      4  C5  NAG d 902       8.395  -7.859  30.829  0.00  0.00     0.179 C 
ATOM      5  C3  NAG d 902       6.244  -9.065  30.409  0.00  0.00     0.183 C 
ATOM      6  C2  NAG d 902       5.989  -8.210  29.162  0.00  0.00     0.171 C 
ENDROOT
BRANCH   5   7
ATOM      7  O3  NAG d 902       5.608 -10.352  30.213  0.00  0.00    -0.348 OA
BRANCH   7   8
ATOM      8  C1  GCD d 901       5.072 -11.058  31.313  0.00  0.00     0.298 C 
ATOM      9  C2  GCD d 901       3.899 -11.905  30.927  0.00  0.00     0.206 C 
ATOM     10  C3  GCD d 901       3.440 -12.620  32.247  0.00  0.00     0.177 C 
ATOM     11  C4  GCD d 901       4.528 -13.101  33.229  0.00  0.00     0.051 C 
ATOM     12  C5  GCD d 901       5.827 -12.881  32.936  0.00  0.00     0.144 C 
ATOM     13  O5  GCD d 901       6.170 -11.984  31.777  0.00  0.00    -0.311 OA
BRANCH   9  14
ATOM     14  O2  GCD d 901       2.810 -11.102  30.369  0.00  0.00    -0.388 OA
ATOM     15  H   GCD d 901       2.912 -11.043  29.406  0.00  0.00     0.210 HD
ENDBRANCH   9  14
BRANCH  10  16
ATOM     16  O3  GCD d 901       2.351 -13.461  31.914  0.00  0.00    -0.389 OA
ATOM     17  H   GCD d 901       2.220 -14.113  32.620  0.00  0.00     0.210 HD
ENDBRANCH  10  16
BRANCH  12  18
ATOM     18  C6  GCD d 901       6.975 -13.307  33.815  0.00  0.00     0.200 C 
ATOM     19  O6B GCD d 901       6.578 -14.093  34.751  0.00  0.00    -0.645 OA
BRANCH  18  20
ATOM     20  O6A GCD d 901       8.076 -12.648  33.686  0.00  0.00    -0.771 OA
ATOM     21  H   GCD d 901       8.071 -11.804  33.279  0.00  0.00     0.167 HD
ENDBRANCH  18  20
ENDBRANCH  12  18
ENDBRANCH   7   8
ENDBRANCH   5   7
BRANCH   1  22
ATOM     22  O4  NAG d 902       8.048 -10.039  31.813  0.00  0.00    -0.390 OA
ATOM     23  H   NAG d 902       8.258 -10.944  31.536  0.00  0.00     0.210 HD
ENDBRANCH   1  22
BRANCH   6  24
ATOM     24  N2  NAG d 902       4.490  -8.133  28.927  0.00  0.00    -0.349 N 
ATOM     25  C7  NAG d 902       3.970  -8.693  27.716  0.00  0.00     0.214 C 
ATOM     26  O7  NAG d 902       4.675  -9.233  26.820  0.00  0.00    -0.274 OA
ATOM     27  C8  NAG d 902       2.458  -8.611  27.638  0.00  0.00     0.117 C 
ATOM     28  H   NAG d 902       3.895  -7.710  29.588  0.00  0.00     0.163 HD
ENDBRANCH   6  24
BRANCH   4  29
ATOM     29  C6  NAG d 902       9.903  -7.984  31.044  0.00  0.00     0.198 C 
BRANCH  29  30
ATOM     30  O6  NAG d 902      10.465  -9.233  30.558  0.00  0.00    -0.398 OA
ATOM     31  H   NAG d 902      11.355  -9.351  30.924  0.00  0.00     0.209 HD
ENDBRANCH  29  30
ENDBRANCH   4  29
BRANCH   3  32
ATOM     32  O1  NAG d 902       6.390  -6.006  28.238  0.00  0.00    -0.369 OA
ATOM     33  H   NAG d 902       7.220  -5.878  27.751  0.00  0.00     0.212 HD
ENDBRANCH   3  32
TORSDOF 11
ENDMDL
MODEL 49
REMARK VINA RESULT:      -6.3      2.437      5.423
REMARK  11 active torsions:
REMARK  status: ('A' for Active; 'I' for Inactive)
REMARK    1  A    between atoms: C4_1  and  O4_9 
REMARK    2  A    between atoms: O6_3  and  C6_15 
REMARK    3  A    between atoms: C1_4  and  O1_21 
REMARK    4  A    between atoms: O2_6  and  C2_13 
REMARK       I    between atoms: C7_7  and  N2_10 
REMARK    5  A    between atoms: O3_8  and  C1_12 
REMARK    6  A    between atoms: O3_8  and  C3_16 
REMARK    7  A    between atoms: N2_10  and  C2_20 
REMARK    8  A    between atoms: C5_11  and  C6_15 
REMARK    9  A    between atoms: C5_18  and  C6_25 
REMARK   10  A    between atoms: O3_22  and  C3_24 
REMARK   11  A    between atoms: O6A_23  and  C6_25 
ROOT
ATOM      1  C4  NAG d 902       5.622 -11.334  31.264  0.00  0.00     0.180 C 
ATOM      2  O5  NAG d 902       7.415 -12.924  31.887  0.00  0.00    -0.349 OA
ATOM      3  C1  NAG d 902       8.489 -11.920  31.607  0.00  0.00     0.282 C 
ATOM      4  C5  NAG d 902       6.115 -12.300  32.327  0.00  0.00     0.179 C 
ATOM      5  C3  NAG d 902       6.722 -10.273  30.991  0.00  0.00     0.183 C 
ATOM      6  C2  NAG d 902       8.011 -10.953  30.516  0.00  0.00     0.171 C 
ENDROOT
BRANCH   5   7
ATOM      7  O3  NAG d 902       6.299  -9.338  29.969  0.00  0.00    -0.348 OA
BRANCH   7   8
ATOM      8  C1  GCD d 901       6.411  -7.946  30.184  0.00  0.00     0.298 C 
ATOM      9  C2  GCD d 901       5.276  -7.185  29.572  0.00  0.00     0.206 C 
ATOM     10  C3  GCD d 901       5.547  -5.676  29.910  0.00  0.00     0.177 C 
ATOM     11  C4  GCD d 901       6.127  -5.335  31.298  0.00  0.00     0.051 C 
ATOM     12  C5  GCD d 901       6.396  -6.333  32.165  0.00  0.00     0.144 C 
ATOM     13  O5  GCD d 901       6.332  -7.757  31.680  0.00  0.00    -0.311 OA
BRANCH   9  14
ATOM     14  O2  GCD d 901       5.207  -7.385  28.123  0.00  0.00    -0.388 OA
ATOM     15  H   GCD d 901       4.279  -7.470  27.853  0.00  0.00     0.210 HD
ENDBRANCH   9  14
BRANCH  10  16
ATOM     16  O3  GCD d 901       4.473  -4.925  29.376  0.00  0.00    -0.389 OA
ATOM     17  H   GCD d 901       4.500  -4.964  28.408  0.00  0.00     0.210 HD
ENDBRANCH  10  16
BRANCH  12  18
ATOM     18  C6  GCD d 901       6.959  -6.123  33.548  0.00  0.00     0.200 C 
ATOM     19  O6B GCD d 901       6.632  -4.971  34.014  0.00  0.00    -0.645 OA
BRANCH  18  20
ATOM     20  O6A GCD d 901       7.864  -6.957  33.935  0.00  0.00    -0.771 OA
ATOM     21  H   GCD d 901       8.061  -7.045  34.847  0.00  0.00     0.167 HD
ENDBRANCH  18  20
ENDBRANCH  12  18
ENDBRANCH   7   8
ENDBRANCH   5   7
BRANCH   1  22
ATOM     22  O4  NAG d 902       4.386 -10.727  31.709  0.00  0.00    -0.390 OA
ATOM     23  H   NAG d 902       4.240  -9.899  31.227  0.00  0.00     0.210 HD
ENDBRANCH   1  22
BRANCH   6  24
ATOM     24  N2  NAG d 902       9.035  -9.877  30.194  0.00  0.00    -0.349 N 
ATOM     25  C7  NAG d 902       9.541  -9.086  31.275  0.00  0.00     0.214 C 
ATOM     26  O7  NAG d 902       9.182  -9.210  32.478  0.00  0.00    -0.274 OA
ATOM     27  C8  NAG d 902      10.602  -8.099  30.829  0.00  0.00     0.117 C 
ATOM     28  H   NAG d 902       9.340  -9.729  29.270  0.00  0.00     0.163 HD
ENDBRANCH   6  24
BRANCH   4  29
ATOM     29  C6  NAG d 902       5.062 -13.373  32.604  0.00  0.00     0.198 C 
BRANCH  29  30
ATOM     30  O6  NAG d 902       4.001 -12.938  33.497  0.00  0.00    -0.398 OA
ATOM     31  H   NAG d 902       3.291 -12.528  32.978  0.00  0.00     0.209 HD
ENDBRANCH  29  30
ENDBRANCH   4  29
BRANCH   3  32
ATOM     32  O1  NAG d 902       9.697 -12.552  31.202  0.00  0.00    -0.369 OA
ATOM     33  H   NAG d 902      10.390 -12.377  31.858  0.00  0.00     0.212 HD
ENDBRANCH   3  32
TORSDOF 11
ENDMDL
MODEL 50
REMARK VINA RESULT:      -6.3      3.011      5.162
REMARK  11 active torsions:
REMARK  status: ('A' for Active; 'I' for Inactive)
REMARK    1  A    between atoms: C4_1  and  O4_9 
REMARK    2  A    between atoms: O6_3  and  C6_15 
REMARK    3  A    between atoms: C1_4  and  O1_21 
REMARK    4  A    between atoms: O2_6  and  C2_13 
REMARK       I    between atoms: C7_7  and  N2_10 
REMARK    5  A    between atoms: O3_8  and  C1_12 
REMARK    6  A    between atoms: O3_8  and  C3_16 
REMARK    7  A    between atoms: N2_10  and  C2_20 
REMARK    8  A    between atoms: C5_11  and  C6_15 
REMARK    9  A    between atoms: C5_18  and  C6_25 
REMARK   10  A    between atoms: O3_22  and  C3_24 
REMARK   11  A    between atoms: O6A_23  and  C6_25 
ROOT
ATOM      1  C4  NAG d 902       5.050  -7.949  30.265  0.00  0.00     0.180 C 
ATOM      2  O5  NAG d 902       4.107  -6.331  31.886  0.00  0.00    -0.349 OA
ATOM      3  C1  NAG d 902       3.490  -7.419  32.708  0.00  0.00     0.282 C 
ATOM      4  C5  NAG d 902       5.358  -6.765  31.165  0.00  0.00     0.179 C 
ATOM      5  C3  NAG d 902       4.437  -9.090  31.119  0.00  0.00     0.183 C 
ATOM      6  C2  NAG d 902       3.151  -8.611  31.804  0.00  0.00     0.171 C 
ENDROOT
BRANCH   5   7
ATOM      7  O3  NAG d 902       4.111 -10.237  30.296  0.00  0.00    -0.348 OA
BRANCH   7   8
ATOM      8  C1  GCD d 901       4.885 -11.416  30.376  0.00  0.00     0.298 C 
ATOM      9  C2  GCD d 901       5.908 -11.499  29.285  0.00  0.00     0.206 C 
ATOM     10  C3  GCD d 901       6.676 -12.846  29.527  0.00  0.00     0.177 C 
ATOM     11  C4  GCD d 901       6.974 -13.262  30.982  0.00  0.00     0.051 C 
ATOM     12  C5  GCD d 901       6.557 -12.473  31.994  0.00  0.00     0.144 C 
ATOM     13  O5  GCD d 901       5.625 -11.330  31.689  0.00  0.00    -0.311 OA
BRANCH   9  14
ATOM     14  O2  GCD d 901       5.288 -11.489  27.959  0.00  0.00    -0.388 OA
ATOM     15  H   GCD d 901       5.279 -12.389  27.599  0.00  0.00     0.210 HD
ENDBRANCH   9  14
BRANCH  10  16
ATOM     16  O3  GCD d 901       7.680 -12.944  28.533  0.00  0.00    -0.389 OA
ATOM     17  H   GCD d 901       7.403 -13.581  27.856  0.00  0.00     0.210 HD
ENDBRANCH  10  16
BRANCH  12  18
ATOM     18  C6  GCD d 901       6.792 -12.772  33.453  0.00  0.00     0.200 C 
ATOM     19  O6B GCD d 901       5.685 -12.819  34.102  0.00  0.00    -0.645 OA
BRANCH  18  20
ATOM     20  O6A GCD d 901       8.007 -12.671  33.873  0.00  0.00    -0.771 OA
ATOM     21  H   GCD d 901       8.381 -13.353  34.396  0.00  0.00     0.167 HD
ENDBRANCH  18  20
ENDBRANCH  12  18
ENDBRANCH   7   8
ENDBRANCH   5   7
BRANCH   1  22
ATOM     22  O4  NAG d 902       6.263  -8.367  29.597  0.00  0.00    -0.390 OA
ATOM     23  H   NAG d 902       6.330  -7.921  28.739  0.00  0.00     0.210 HD
ENDBRANCH   1  22
BRANCH   6  24
ATOM     24  N2  NAG d 902       2.549  -9.777  32.570  0.00  0.00    -0.349 N 
ATOM     25  C7  NAG d 902       1.124  -9.826  32.709  0.00  0.00     0.214 C 
ATOM     26  O7  NAG d 902       0.333  -8.956  32.252  0.00  0.00    -0.274 OA
ATOM     27  C8  NAG d 902       0.651 -11.071  33.434  0.00  0.00     0.117 C 
ATOM     28  H   NAG d 902       3.121 -10.477  32.959  0.00  0.00     0.163 HD
ENDBRANCH   6  24
BRANCH   4  29
ATOM     29  C6  NAG d 902       5.945  -5.612  30.350  0.00  0.00     0.198 C 
BRANCH  29  30
ATOM     30  O6  NAG d 902       5.508  -5.591  28.964  0.00  0.00    -0.398 OA
ATOM     31  H   NAG d 902       6.093  -6.154  28.433  0.00  0.00     0.209 HD
ENDBRANCH  29  30
ENDBRANCH   4  29
BRANCH   3  32
ATOM     32  O1  NAG d 902       2.318  -6.964  33.374  0.00  0.00    -0.369 OA
ATOM     33  H   NAG d 902       1.758  -6.478  32.747  0.00  0.00     0.212 HD
ENDBRANCH   3  32
TORSDOF 11
ENDMDL
MODEL 51
REMARK VINA RESULT:      -6.3      2.122      4.153
REMARK  11 active torsions:
REMARK  status: ('A' for Active; 'I' for Inactive)
REMARK    1  A    between atoms: C4_1  and  O4_9 
REMARK    2  A    between atoms: O6_3  and  C6_15 
REMARK    3  A    between atoms: C1_4  and  O1_21 
REMARK    4  A    between atoms: O2_6  and  C2_13 
REMARK       I    between atoms: C7_7  and  N2_10 
REMARK    5  A    between atoms: O3_8  and  C1_12 
REMARK    6  A    between atoms: O3_8  and  C3_16 
REMARK    7  A    between atoms: N2_10  and  C2_20 
REMARK    8  A    between atoms: C5_11  and  C6_15 
REMARK    9  A    between atoms: C5_18  and  C6_25 
REMARK   10  A    between atoms: O3_22  and  C3_24 
REMARK   11  A    between atoms: O6A_23  and  C6_25 
ROOT
ATOM      1  C4  NAG d 902       9.792 -10.641  30.517  0.00  0.00     0.180 C 
ATOM      2  O5  NAG d 902      11.495  -8.926  31.053  0.00  0.00    -0.349 OA
ATOM      3  C1  NAG d 902      10.454  -7.880  31.302  0.00  0.00     0.282 C 
ATOM      4  C5  NAG d 902      11.019 -10.325  31.353  0.00  0.00     0.179 C 
ATOM      5  C3  NAG d 902       8.699  -9.575  30.794  0.00  0.00     0.183 C 
ATOM      6  C2  NAG d 902       9.218  -8.176  30.443  0.00  0.00     0.171 C 
ENDROOT
BRANCH   5   7
ATOM      7  O3  NAG d 902       7.513  -9.830  30.002  0.00  0.00    -0.348 OA
BRANCH   7   8
ATOM      8  C1  GCD d 901       6.293 -10.166  30.631  0.00  0.00     0.298 C 
ATOM      9  C2  GCD d 901       5.129 -10.085  29.692  0.00  0.00     0.206 C 
ATOM     10  C3  GCD d 901       3.873 -10.495  30.538  0.00  0.00     0.177 C 
ATOM     11  C4  GCD d 901       4.032 -11.629  31.572  0.00  0.00     0.051 C 
ATOM     12  C5  GCD d 901       5.236 -12.217  31.728  0.00  0.00     0.144 C 
ATOM     13  O5  GCD d 901       6.437 -11.608  31.054  0.00  0.00    -0.311 OA
BRANCH   9  14
ATOM     14  O2  GCD d 901       4.966  -8.736  29.146  0.00  0.00    -0.388 OA
ATOM     15  H   GCD d 901       5.833  -8.304  29.087  0.00  0.00     0.210 HD
ENDBRANCH   9  14
BRANCH  10  16
ATOM     16  O3  GCD d 901       2.753 -10.465  29.672  0.00  0.00    -0.389 OA
ATOM     17  H   GCD d 901       2.033  -9.968  30.092  0.00  0.00     0.210 HD
ENDBRANCH  10  16
BRANCH  12  18
ATOM     18  C6  GCD d 901       5.511 -13.335  32.702  0.00  0.00     0.200 C 
ATOM     19  O6B GCD d 901       5.383 -12.936  33.916  0.00  0.00    -0.645 OA
BRANCH  18  20
ATOM     20  O6A GCD d 901       6.073 -14.392  32.222  0.00  0.00    -0.771 OA
ATOM     21  H   GCD d 901       6.997 -14.403  32.067  0.00  0.00     0.167 HD
ENDBRANCH  18  20
ENDBRANCH  12  18
ENDBRANCH   7   8
ENDBRANCH   5   7
BRANCH   1  22
ATOM     22  O4  NAG d 902       9.334 -11.977  30.830  0.00  0.00    -0.390 OA
ATOM     23  H   NAG d 902       9.823 -12.316  31.596  0.00  0.00     0.210 HD
ENDBRANCH   1  22
BRANCH   6  24
ATOM     24  N2  NAG d 902       8.097  -7.175  30.662  0.00  0.00    -0.349 N 
ATOM     25  C7  NAG d 902       8.085  -5.991  29.857  0.00  0.00     0.214 C 
ATOM     26  O7  NAG d 902       8.954  -5.713  28.985  0.00  0.00    -0.274 OA
ATOM     27  C8  NAG d 902       6.879  -5.112  30.128  0.00  0.00     0.117 C 
ATOM     28  H   NAG d 902       7.399  -7.335  31.338  0.00  0.00     0.163 HD
ENDBRANCH   6  24
BRANCH   4  29
ATOM     29  C6  NAG d 902      12.125 -11.346  31.087  0.00  0.00     0.198 C 
BRANCH  29  30
ATOM     30  O6  NAG d 902      12.093 -12.493  31.978  0.00  0.00    -0.398 OA
ATOM     31  H   NAG d 902      12.557 -12.274  32.802  0.00  0.00     0.209 HD
ENDBRANCH  29  30
ENDBRANCH   4  29
BRANCH   3  32
ATOM     32  O1  NAG d 902      10.948  -6.577  31.013  0.00  0.00    -0.369 OA
ATOM     33  H   NAG d 902      10.294  -6.094  30.483  0.00  0.00     0.212 HD
ENDBRANCH   3  32
TORSDOF 11
ENDMDL
MODEL 52
REMARK VINA RESULT:      -6.3      2.133      3.928
REMARK  11 active torsions:
REMARK  status: ('A' for Active; 'I' for Inactive)
REMARK    1  A    between atoms: C4_1  and  O4_9 
REMARK    2  A    between atoms: O6_3  and  C6_15 
REMARK    3  A    between atoms: C1_4  and  O1_21 
REMARK    4  A    between atoms: O2_6  and  C2_13 
REMARK       I    between atoms: C7_7  and  N2_10 
REMARK    5  A    between atoms: O3_8  and  C1_12 
REMARK    6  A    between atoms: O3_8  and  C3_16 
REMARK    7  A    between atoms: N2_10  and  C2_20 
REMARK    8  A    between atoms: C5_11  and  C6_15 
REMARK    9  A    between atoms: C5_18  and  C6_25 
REMARK   10  A    between atoms: O3_22  and  C3_24 
REMARK   11  A    between atoms: O6A_23  and  C6_25 
ROOT
ATOM      1  C4  NAG d 902       7.902 -10.342  31.077  0.00  0.00     0.180 C 
ATOM      2  O5  NAG d 902       8.350 -12.762  31.351  0.00  0.00    -0.349 OA
ATOM      3  C1  NAG d 902       6.898 -13.107  31.237  0.00  0.00     0.282 C 
ATOM      4  C5  NAG d 902       8.729 -11.518  30.588  0.00  0.00     0.179 C 
ATOM      5  C3  NAG d 902       6.395 -10.684  30.933  0.00  0.00     0.183 C 
ATOM      6  C2  NAG d 902       6.053 -11.935  31.752  0.00  0.00     0.171 C 
ENDROOT
BRANCH   5   7
ATOM      7  O3  NAG d 902       5.568  -9.593  31.405  0.00  0.00    -0.348 OA
BRANCH   7   8
ATOM      8  C1  GCD d 901       4.336  -9.307  30.775  0.00  0.00     0.298 C 
ATOM      9  C2  GCD d 901       3.732  -8.027  31.264  0.00  0.00     0.206 C 
ATOM     10  C3  GCD d 901       2.393  -7.857  30.464  0.00  0.00     0.177 C 
ATOM     11  C4  GCD d 901       2.377  -8.272  28.978  0.00  0.00     0.051 C 
ATOM     12  C5  GCD d 901       3.497  -8.777  28.421  0.00  0.00     0.144 C 
ATOM     13  O5  GCD d 901       4.659  -9.128  29.311  0.00  0.00    -0.311 OA
BRANCH   9  14
ATOM     14  O2  GCD d 901       3.473  -8.066  32.704  0.00  0.00    -0.388 OA
ATOM     15  H   GCD d 901       4.180  -7.596  33.173  0.00  0.00     0.210 HD
ENDBRANCH   9  14
BRANCH  10  16
ATOM     16  O3  GCD d 901       1.808  -6.635  30.874  0.00  0.00    -0.389 OA
ATOM     17  H   GCD d 901       1.564  -6.692  31.811  0.00  0.00     0.210 HD
ENDBRANCH  10  16
BRANCH  12  18
ATOM     18  C6  GCD d 901       3.602  -9.213  26.981  0.00  0.00     0.200 C 
ATOM     19  O6B GCD d 901       4.434 -10.183  26.848  0.00  0.00    -0.645 OA
BRANCH  18  20
ATOM     20  O6A GCD d 901       3.090  -8.422  26.100  0.00  0.00    -0.771 OA
ATOM     21  H   GCD d 901       3.619  -8.095  25.400  0.00  0.00     0.167 HD
ENDBRANCH  18  20
ENDBRANCH  12  18
ENDBRANCH   7   8
ENDBRANCH   5   7
BRANCH   1  22
ATOM     22  O4  NAG d 902       8.261  -9.161  30.322  0.00  0.00    -0.390 OA
ATOM     23  H   NAG d 902       9.168  -8.898  30.544  0.00  0.00     0.210 HD
ENDBRANCH   1  22
BRANCH   6  24
ATOM     24  N2  NAG d 902       4.560 -12.192  31.640  0.00  0.00    -0.349 N 
ATOM     25  C7  NAG d 902       3.885 -12.745  32.775  0.00  0.00     0.214 C 
ATOM     26  O7  NAG d 902       4.451 -13.051  33.861  0.00  0.00    -0.274 OA
ATOM     27  C8  NAG d 902       2.392 -12.889  32.554  0.00  0.00     0.117 C 
ATOM     28  H   NAG d 902       4.071 -11.984  30.810  0.00  0.00     0.163 HD
ENDBRANCH   6  24
BRANCH   4  29
ATOM     29  C6  NAG d 902      10.221 -11.221  30.736  0.00  0.00     0.198 C 
BRANCH  29  30
ATOM     30  O6  NAG d 902      10.514 -10.115  31.632  0.00  0.00    -0.398 OA
ATOM     31  H   NAG d 902       9.989 -10.208  32.442  0.00  0.00     0.209 HD
ENDBRANCH  29  30
ENDBRANCH   4  29
BRANCH   3  32
ATOM     32  O1  NAG d 902       6.587 -14.288  31.966  0.00  0.00    -0.369 OA
ATOM     33  H   NAG d 902       7.405 -14.770  32.165  0.00  0.00     0.212 HD
ENDBRANCH   3  32
TORSDOF 11
ENDMDL
MODEL 53
REMARK VINA RESULT:      -6.3      2.092      4.035
REMARK  11 active torsions:
REMARK  status: ('A' for Active; 'I' for Inactive)
REMARK    1  A    between atoms: C4_1  and  O4_9 
REMARK    2  A    between atoms: O6_3  and  C6_15 
REMARK    3  A    between atoms: C1_4  and  O1_21 
REMARK    4  A    between atoms: O2_6  and  C2_13 
REMARK       I    between atoms: C7_7  and  N2_10 
REMARK    5  A    between atoms: O3_8  and  C1_12 
REMARK    6  A    between atoms: O3_8  and  C3_16 
REMARK    7  A    between atoms: N2_10  and  C2_20 
REMARK    8  A    between atoms: C5_11  and  C6_15 
REMARK    9  A    between atoms: C5_18  and  C6_25 
REMARK   10  A    between atoms: O3_22  and  C3_24 
REMARK   11  A    between atoms: O6A_23  and  C6_25 
ROOT
ATOM      1  C4  NAG d 902       8.024 -10.276  31.246  0.00  0.00     0.180 C 
ATOM      2  O5  NAG d 902       8.412 -12.719  31.351  0.00  0.00    -0.349 OA
ATOM      3  C1  NAG d 902       6.954 -13.020  31.198  0.00  0.00     0.282 C 
ATOM      4  C5  NAG d 902       8.829 -11.434  30.682  0.00  0.00     0.179 C 
ATOM      5  C3  NAG d 902       6.512 -10.570  31.062  0.00  0.00     0.183 C 
ATOM      6  C2  NAG d 902       6.130 -11.867  31.786  0.00  0.00     0.171 C 
ENDROOT
BRANCH   5   7
ATOM      7  O3  NAG d 902       5.705  -9.496  31.602  0.00  0.00    -0.348 OA
BRANCH   7   8
ATOM      8  C1  GCD d 901       4.904  -8.705  30.747  0.00  0.00     0.298 C 
ATOM      9  C2  GCD d 901       5.362  -7.281  30.698  0.00  0.00     0.206 C 
ATOM     10  C3  GCD d 901       4.384  -6.555  29.708  0.00  0.00     0.177 C 
ATOM     11  C4  GCD d 901       3.916  -7.324  28.455  0.00  0.00     0.051 C 
ATOM     12  C5  GCD d 901       4.344  -8.588  28.257  0.00  0.00     0.144 C 
ATOM     13  O5  GCD d 901       5.082  -9.290  29.367  0.00  0.00    -0.311 OA
BRANCH   9  14
ATOM     14  O2  GCD d 901       5.320  -6.651  32.019  0.00  0.00    -0.388 OA
ATOM     15  H   GCD d 901       4.911  -7.260  32.655  0.00  0.00     0.210 HD
ENDBRANCH   9  14
BRANCH  10  16
ATOM     16  O3  GCD d 901       4.808  -5.208  29.607  0.00  0.00    -0.389 OA
ATOM     17  H   GCD d 901       5.093  -4.893  30.478  0.00  0.00     0.210 HD
ENDBRANCH  10  16
BRANCH  12  18
ATOM     18  C6  GCD d 901       3.958  -9.436  27.071  0.00  0.00     0.200 C 
ATOM     19  O6B GCD d 901       4.630 -10.531  27.044  0.00  0.00    -0.645 OA
BRANCH  18  20
ATOM     20  O6A GCD d 901       3.257  -8.860  26.155  0.00  0.00    -0.771 OA
ATOM     21  H   GCD d 901       3.677  -8.501  25.399  0.00  0.00     0.167 HD
ENDBRANCH  18  20
ENDBRANCH  12  18
ENDBRANCH   7   8
ENDBRANCH   5   7
BRANCH   1  22
ATOM     22  O4  NAG d 902       8.420  -9.054  30.580  0.00  0.00    -0.390 OA
ATOM     23  H   NAG d 902       9.355  -8.873  30.764  0.00  0.00     0.210 HD
ENDBRANCH   1  22
BRANCH   6  24
ATOM     24  N2  NAG d 902       4.633 -12.080  31.640  0.00  0.00    -0.349 N 
ATOM     25  C7  NAG d 902       3.927 -12.667  32.739  0.00  0.00     0.214 C 
ATOM     26  O7  NAG d 902       4.467 -13.039  33.817  0.00  0.00    -0.274 OA
ATOM     27  C8  NAG d 902       2.434 -12.761  32.490  0.00  0.00     0.117 C 
ATOM     28  H   NAG d 902       4.163 -11.820  30.815  0.00  0.00     0.163 HD
ENDBRANCH   6  24
BRANCH   4  29
ATOM     29  C6  NAG d 902      10.326 -11.185  30.867  0.00  0.00     0.198 C 
BRANCH  29  30
ATOM     30  O6  NAG d 902      10.999 -12.206  31.652  0.00  0.00    -0.398 OA
ATOM     31  H   NAG d 902      10.791 -12.081  32.591  0.00  0.00     0.209 HD
ENDBRANCH  29  30
ENDBRANCH   4  29
BRANCH   3  32
ATOM     32  O1  NAG d 902       6.606 -14.242  31.837  0.00  0.00    -0.369 OA
ATOM     33  H   NAG d 902       6.229 -14.054  32.712  0.00  0.00     0.212 HD
ENDBRANCH   3  32
TORSDOF 11
ENDMDL
MODEL 54
REMARK VINA RESULT:      -6.3      3.028      4.955
REMARK  11 active torsions:
REMARK  status: ('A' for Active; 'I' for Inactive)
REMARK    1  A    between atoms: C4_1  and  O4_9 
REMARK    2  A    between atoms: O6_3  and  C6_15 
REMARK    3  A    between atoms: C1_4  and  O1_21 
REMARK    4  A    between atoms: O2_6  and  C2_13 
REMARK       I    between atoms: C7_7  and  N2_10 
REMARK    5  A    between atoms: O3_8  and  C1_12 
REMARK    6  A    between atoms: O3_8  and  C3_16 
REMARK    7  A    between atoms: N2_10  and  C2_20 
REMARK    8  A    between atoms: C5_11  and  C6_15 
REMARK    9  A    between atoms: C5_18  and  C6_25 
REMARK   10  A    between atoms: O3_22  and  C3_24 
REMARK   11  A    between atoms: O6A_23  and  C6_25 
ROOT
ATOM      1  C4  NAG d 902       4.313 -10.773  29.615  0.00  0.00     0.180 C 
ATOM      2  O5  NAG d 902       6.371 -11.879  28.795  0.00  0.00    -0.349 OA
ATOM      3  C1  NAG d 902       6.476 -12.731  30.020  0.00  0.00     0.282 C 
ATOM      4  C5  NAG d 902       4.952 -11.505  28.448  0.00  0.00     0.179 C 
ATOM      5  C3  NAG d 902       4.393 -11.665  30.881  0.00  0.00     0.183 C 
ATOM      6  C2  NAG d 902       5.855 -11.990  31.212  0.00  0.00     0.171 C 
ENDROOT
BRANCH   5   7
ATOM      7  O3  NAG d 902       3.808 -10.997  32.025  0.00  0.00    -0.348 OA
BRANCH   7   8
ATOM      8  C1  GCD d 901       2.411 -11.036  32.238  0.00  0.00     0.298 C 
ATOM      9  C2  GCD d 901       2.060 -11.486  33.621  0.00  0.00     0.206 C 
ATOM     10  C3  GCD d 901       0.492 -11.460  33.690  0.00  0.00     0.177 C 
ATOM     11  C4  GCD d 901      -0.248 -10.312  32.974  0.00  0.00     0.051 C 
ATOM     12  C5  GCD d 901       0.465  -9.382  32.304  0.00  0.00     0.144 C 
ATOM     13  O5  GCD d 901       1.937  -9.610  32.087  0.00  0.00    -0.311 OA
BRANCH   9  14
ATOM     14  O2  GCD d 901       2.567 -12.830  33.900  0.00  0.00    -0.388 OA
ATOM     15  H   GCD d 901       1.967 -13.282  34.514  0.00  0.00     0.210 HD
ENDBRANCH   9  14
BRANCH  10  16
ATOM     16  O3  GCD d 901       0.120 -11.847  35.000  0.00  0.00    -0.389 OA
ATOM     17  H   GCD d 901       0.790 -12.449  35.361  0.00  0.00     0.210 HD
ENDBRANCH  10  16
BRANCH  12  18
ATOM     18  C6  GCD d 901      -0.146  -8.214  31.571  0.00  0.00     0.200 C 
ATOM     19  O6B GCD d 901      -0.539  -7.305  32.390  0.00  0.00    -0.645 OA
BRANCH  18  20
ATOM     20  O6A GCD d 901      -0.427  -8.399  30.326  0.00  0.00    -0.771 OA
ATOM     21  H   GCD d 901       0.249  -8.640  29.724  0.00  0.00     0.167 HD
ENDBRANCH  18  20
ENDBRANCH  12  18
ENDBRANCH   7   8
ENDBRANCH   5   7
BRANCH   1  22
ATOM     22  O4  NAG d 902       2.946 -10.440  29.276  0.00  0.00    -0.390 OA
ATOM     23  H   NAG d 902       2.664  -9.667  29.789  0.00  0.00     0.210 HD
ENDBRANCH   1  22
BRANCH   6  24
ATOM     24  N2  NAG d 902       5.891 -12.804  32.494  0.00  0.00    -0.349 N 
ATOM     25  C7  NAG d 902       7.026 -12.654  33.354  0.00  0.00     0.214 C 
ATOM     26  O7  NAG d 902       8.010 -11.902  33.112  0.00  0.00    -0.274 OA
ATOM     27  C8  NAG d 902       6.905 -13.468  34.627  0.00  0.00     0.117 C 
ATOM     28  H   NAG d 902       5.156 -13.417  32.726  0.00  0.00     0.163 HD
ENDBRANCH   6  24
BRANCH   4  29
ATOM     29  C6  NAG d 902       4.908 -10.642  27.187  0.00  0.00     0.198 C 
BRANCH  29  30
ATOM     30  O6  NAG d 902       3.578 -10.497  26.620  0.00  0.00    -0.398 OA
ATOM     31  H   NAG d 902       3.604 -10.716  25.675  0.00  0.00     0.209 HD
ENDBRANCH  29  30
ENDBRANCH   4  29
BRANCH   3  32
ATOM     32  O1  NAG d 902       7.829 -13.064  30.306  0.00  0.00    -0.369 OA
ATOM     33  H   NAG d 902       8.057 -13.897  29.864  0.00  0.00     0.212 HD
ENDBRANCH   3  32
TORSDOF 11
ENDMDL
MODEL 55
REMARK VINA RESULT:      -6.3      2.490      4.893
REMARK  11 active torsions:
REMARK  status: ('A' for Active; 'I' for Inactive)
REMARK    1  A    between atoms: C4_1  and  O4_9 
REMARK    2  A    between atoms: O6_3  and  C6_15 
REMARK    3  A    between atoms: C1_4  and  O1_21 
REMARK    4  A    between atoms: O2_6  and  C2_13 
REMARK       I    between atoms: C7_7  and  N2_10 
REMARK    5  A    between atoms: O3_8  and  C1_12 
REMARK    6  A    between atoms: O3_8  and  C3_16 
REMARK    7  A    between atoms: N2_10  and  C2_20 
REMARK    8  A    between atoms: C5_11  and  C6_15 
REMARK    9  A    between atoms: C5_18  and  C6_25 
REMARK   10  A    between atoms: O3_22  and  C3_24 
REMARK   11  A    between atoms: O6A_23  and  C6_25 
ROOT
ATOM      1  C4  NAG d 902       6.820 -10.087  31.108  0.00  0.00     0.180 C 
ATOM      2  O5  NAG d 902       7.400  -7.975  29.953  0.00  0.00    -0.349 OA
ATOM      3  C1  NAG d 902       5.999  -7.787  29.461  0.00  0.00     0.282 C 
ATOM      4  C5  NAG d 902       7.478  -8.727  31.258  0.00  0.00     0.179 C 
ATOM      5  C3  NAG d 902       5.358  -9.895  30.626  0.00  0.00     0.183 C 
ATOM      6  C2  NAG d 902       5.333  -9.157  29.282  0.00  0.00     0.171 C 
ENDROOT
BRANCH   5   7
ATOM      7  O3  NAG d 902       4.696 -11.172  30.454  0.00  0.00    -0.348 OA
BRANCH   7   8
ATOM      8  C1  GCD d 901       3.469 -11.434  31.105  0.00  0.00     0.298 C 
ATOM      9  C2  GCD d 901       3.653 -12.209  32.372  0.00  0.00     0.206 C 
ATOM     10  C3  GCD d 901       2.213 -12.401  32.965  0.00  0.00     0.177 C 
ATOM     11  C4  GCD d 901       1.215 -11.232  32.841  0.00  0.00     0.051 C 
ATOM     12  C5  GCD d 901       1.599 -10.097  32.220  0.00  0.00     0.144 C 
ATOM     13  O5  GCD d 901       2.907 -10.082  31.475  0.00  0.00    -0.311 OA
BRANCH   9  14
ATOM     14  O2  GCD d 901       4.288 -13.506  32.127  0.00  0.00    -0.388 OA
ATOM     15  H   GCD d 901       5.122 -13.555  32.620  0.00  0.00     0.210 HD
ENDBRANCH   9  14
BRANCH  10  16
ATOM     16  O3  GCD d 901       2.349 -13.102  34.187  0.00  0.00    -0.389 OA
ATOM     17  H   GCD d 901       1.481 -13.423  34.474  0.00  0.00     0.210 HD
ENDBRANCH  10  16
BRANCH  12  18
ATOM     18  C6  GCD d 901       0.715  -8.889  32.043  0.00  0.00     0.200 C 
ATOM     19  O6B GCD d 901      -0.327  -9.173  31.346  0.00  0.00    -0.645 OA
BRANCH  18  20
ATOM     20  O6A GCD d 901       1.228  -7.748  32.355  0.00  0.00    -0.771 OA
ATOM     21  H   GCD d 901       1.423  -7.123  31.685  0.00  0.00     0.167 HD
ENDBRANCH  18  20
ENDBRANCH  12  18
ENDBRANCH   7   8
ENDBRANCH   5   7
BRANCH   1  22
ATOM     22  O4  NAG d 902       6.883 -10.788  32.372  0.00  0.00    -0.390 OA
ATOM     23  H   NAG d 902       7.071 -10.156  33.083  0.00  0.00     0.210 HD
ENDBRANCH   1  22
BRANCH   6  24
ATOM     24  N2  NAG d 902       3.891  -9.052  28.815  0.00  0.00    -0.349 N 
ATOM     25  C7  NAG d 902       3.633  -9.123  27.409  0.00  0.00     0.214 C 
ATOM     26  O7  NAG d 902       4.525  -9.249  26.526  0.00  0.00    -0.274 OA
ATOM     27  C8  NAG d 902       2.153  -9.074  27.083  0.00  0.00     0.117 C 
ATOM     28  H   NAG d 902       3.156  -8.939  29.461  0.00  0.00     0.163 HD
ENDBRANCH   6  24
BRANCH   4  29
ATOM     29  C6  NAG d 902       8.929  -8.882  31.711  0.00  0.00     0.198 C 
BRANCH  29  30
ATOM     30  O6  NAG d 902       9.113  -8.762  33.148  0.00  0.00    -0.398 OA
ATOM     31  H   NAG d 902       8.285  -8.460  33.555  0.00  0.00     0.209 HD
ENDBRANCH  29  30
ENDBRANCH   4  29
BRANCH   3  32
ATOM     32  O1  NAG d 902       5.973  -7.068  28.233  0.00  0.00    -0.369 OA
ATOM     33  H   NAG d 902       5.661  -7.653  27.524  0.00  0.00     0.212 HD
ENDBRANCH   3  32
TORSDOF 11
ENDMDL
MODEL 56
REMARK VINA RESULT:      -6.3      2.828      6.120
REMARK  11 active torsions:
REMARK  status: ('A' for Active; 'I' for Inactive)
REMARK    1  A    between atoms: C4_1  and  O4_9 
REMARK    2  A    between atoms: O6_3  and  C6_15 
REMARK    3  A    between atoms: C1_4  and  O1_21 
REMARK    4  A    between atoms: O2_6  and  C2_13 
REMARK       I    between atoms: C7_7  and  N2_10 
REMARK    5  A    between atoms: O3_8  and  C1_12 
REMARK    6  A    between atoms: O3_8  and  C3_16 
REMARK    7  A    between atoms: N2_10  and  C2_20 
REMARK    8  A    between atoms: C5_11  and  C6_15 
REMARK    9  A    between atoms: C5_18  and  C6_25 
REMARK   10  A    between atoms: O3_22  and  C3_24 
REMARK   11  A    between atoms: O6A_23  and  C6_25 
ROOT
ATOM      1  C4  NAG d 902       3.812  -8.436  31.716  0.00  0.00     0.180 C 
ATOM      2  O5  NAG d 902       2.966  -6.384  30.620  0.00  0.00    -0.349 OA
ATOM      3  C1  NAG d 902       4.227  -6.208  29.834  0.00  0.00     0.282 C 
ATOM      4  C5  NAG d 902       2.659  -7.825  30.940  0.00  0.00     0.179 C 
ATOM      5  C3  NAG d 902       5.118  -8.282  30.892  0.00  0.00     0.183 C 
ATOM      6  C2  NAG d 902       5.404  -6.800  30.620  0.00  0.00     0.171 C 
ENDROOT
BRANCH   5   7
ATOM      7  O3  NAG d 902       6.250  -8.839  31.603  0.00  0.00    -0.348 OA
BRANCH   7   8
ATOM      8  C1  GCD d 901       6.765 -10.106  31.246  0.00  0.00     0.298 C 
ATOM      9  C2  GCD d 901       8.246 -10.075  31.030  0.00  0.00     0.206 C 
ATOM     10  C3  GCD d 901       8.650 -11.545  30.657  0.00  0.00     0.177 C 
ATOM     11  C4  GCD d 901       7.938 -12.702  31.387  0.00  0.00     0.051 C 
ATOM     12  C5  GCD d 901       6.989 -12.421  32.304  0.00  0.00     0.144 C 
ATOM     13  O5  GCD d 901       6.495 -11.004  32.430  0.00  0.00    -0.311 OA
BRANCH   9  14
ATOM     14  O2  GCD d 901       8.619  -9.149  29.959  0.00  0.00    -0.388 OA
ATOM     15  H   GCD d 901       7.894  -8.523  29.807  0.00  0.00     0.210 HD
ENDBRANCH   9  14
BRANCH  10  16
ATOM     16  O3  GCD d 901      10.054 -11.565  30.479  0.00  0.00    -0.389 OA
ATOM     17  H   GCD d 901      10.455 -12.157  31.134  0.00  0.00     0.210 HD
ENDBRANCH  10  16
BRANCH  12  18
ATOM     18  C6  GCD d 901       6.229 -13.465  33.083  0.00  0.00     0.200 C 
ATOM     19  O6B GCD d 901       6.177 -14.577  32.442  0.00  0.00    -0.645 OA
BRANCH  18  20
ATOM     20  O6A GCD d 901       5.543 -13.046  34.091  0.00  0.00    -0.771 OA
ATOM     21  H   GCD d 901       5.945 -12.971  34.934  0.00  0.00     0.167 HD
ENDBRANCH  18  20
ENDBRANCH  12  18
ENDBRANCH   7   8
ENDBRANCH   5   7
BRANCH   1  22
ATOM     22  O4  NAG d 902       3.513  -9.824  31.997  0.00  0.00    -0.390 OA
ATOM     23  H   NAG d 902       3.992 -10.391  31.374  0.00  0.00     0.210 HD
ENDBRANCH   1  22
BRANCH   6  24
ATOM     24  N2  NAG d 902       6.723  -6.692  29.874  0.00  0.00    -0.349 N 
ATOM     25  C7  NAG d 902       7.698  -5.763  30.362  0.00  0.00     0.214 C 
ATOM     26  O7  NAG d 902       7.529  -5.013  31.363  0.00  0.00    -0.274 OA
ATOM     27  C8  NAG d 902       8.990  -5.802  29.570  0.00  0.00     0.117 C 
ATOM     28  H   NAG d 902       6.902  -7.244  29.079  0.00  0.00     0.163 HD
ENDBRANCH   6  24
BRANCH   4  29
ATOM     29  C6  NAG d 902       1.359  -7.941  31.735  0.00  0.00     0.198 C 
BRANCH  29  30
ATOM     30  O6  NAG d 902       1.117  -6.824  32.633  0.00  0.00    -0.398 OA
ATOM     31  H   NAG d 902       0.637  -7.137  33.416  0.00  0.00     0.209 HD
ENDBRANCH  29  30
ENDBRANCH   4  29
BRANCH   3  32
ATOM     32  O1  NAG d 902       4.474  -4.836  29.550  0.00  0.00    -0.369 OA
ATOM     33  H   NAG d 902       3.660  -4.326  29.687  0.00  0.00     0.212 HD
ENDBRANCH   3  32
TORSDOF 11
ENDMDL
MODEL 57
REMARK VINA RESULT:      -6.3      2.893      5.725
REMARK  11 active torsions:
REMARK  status: ('A' for Active; 'I' for Inactive)
REMARK    1  A    between atoms: C4_1  and  O4_9 
REMARK    2  A    between atoms: O6_3  and  C6_15 
REMARK    3  A    between atoms: C1_4  and  O1_21 
REMARK    4  A    between atoms: O2_6  and  C2_13 
REMARK       I    between atoms: C7_7  and  N2_10 
REMARK    5  A    between atoms: O3_8  and  C1_12 
REMARK    6  A    between atoms: O3_8  and  C3_16 
REMARK    7  A    between atoms: N2_10  and  C2_20 
REMARK    8  A    between atoms: C5_11  and  C6_15 
REMARK    9  A    between atoms: C5_18  and  C6_25 
REMARK   10  A    between atoms: O3_22  and  C3_24 
REMARK   11  A    between atoms: O6A_23  and  C6_25 
ROOT
ATOM      1  C4  NAG d 902       6.151 -11.443  30.915  0.00  0.00     0.180 C 
ATOM      2  O5  NAG d 902       6.757 -12.620  28.822  0.00  0.00    -0.349 OA
ATOM      3  C1  NAG d 902       5.857 -11.752  28.000  0.00  0.00     0.282 C 
ATOM      4  C5  NAG d 902       7.299 -11.927  30.046  0.00  0.00     0.179 C 
ATOM      5  C3  NAG d 902       5.231 -10.519  30.074  0.00  0.00     0.183 C 
ATOM      6  C2  NAG d 902       4.680 -11.277  28.861  0.00  0.00     0.171 C 
ENDROOT
BRANCH   5   7
ATOM      7  O3  NAG d 902       4.111 -10.047  30.862  0.00  0.00    -0.348 OA
BRANCH   7   8
ATOM      8  C1  GCD d 901       4.034  -8.691  31.254  0.00  0.00     0.298 C 
ATOM      9  C2  GCD d 901       2.876  -8.429  32.165  0.00  0.00     0.206 C 
ATOM     10  C3  GCD d 901       2.945  -6.899  32.509  0.00  0.00     0.177 C 
ATOM     11  C4  GCD d 901       4.335  -6.265  32.723  0.00  0.00     0.051 C 
ATOM     12  C5  GCD d 901       5.438  -7.031  32.595  0.00  0.00     0.144 C 
ATOM     13  O5  GCD d 901       5.299  -8.421  32.033  0.00  0.00    -0.311 OA
BRANCH   9  14
ATOM     14  O2  GCD d 901       1.600  -8.758  31.529  0.00  0.00    -0.388 OA
ATOM     15  H   GCD d 901       0.927  -8.113  31.799  0.00  0.00     0.210 HD
ENDBRANCH   9  14
BRANCH  10  16
ATOM     16  O3  GCD d 901       1.883  -6.618  33.401  0.00  0.00    -0.389 OA
ATOM     17  H   GCD d 901       1.056  -6.534  32.902  0.00  0.00     0.210 HD
ENDBRANCH  10  16
BRANCH  12  18
ATOM     18  C6  GCD d 901       6.846  -6.524  32.784  0.00  0.00     0.200 C 
ATOM     19  O6B GCD d 901       7.443  -6.379  31.656  0.00  0.00    -0.645 OA
BRANCH  18  20
ATOM     20  O6A GCD d 901       7.319  -6.570  33.983  0.00  0.00    -0.771 OA
ATOM     21  H   GCD d 901       6.891  -6.105  34.674  0.00  0.00     0.167 HD
ENDBRANCH  18  20
ENDBRANCH  12  18
ENDBRANCH   7   8
ENDBRANCH   5   7
BRANCH   1  22
ATOM     22  O4  NAG d 902       6.686 -10.762  32.074  0.00  0.00    -0.390 OA
ATOM     23  H   NAG d 902       7.217 -11.382  32.597  0.00  0.00     0.210 HD
ENDBRANCH   1  22
BRANCH   6  24
ATOM     24  N2  NAG d 902       3.732 -10.359  28.108  0.00  0.00    -0.349 N 
ATOM     25  C7  NAG d 902       2.585 -10.944  27.482  0.00  0.00     0.214 C 
ATOM     26  O7  NAG d 902       2.315 -12.177  27.498  0.00  0.00    -0.274 OA
ATOM     27  C8  NAG d 902       1.689  -9.913  26.823  0.00  0.00     0.117 C 
ATOM     28  H   NAG d 902       3.902  -9.391  28.052  0.00  0.00     0.163 HD
ENDBRANCH   6  24
BRANCH   4  29
ATOM     29  C6  NAG d 902       8.215 -12.859  30.840  0.00  0.00     0.198 C 
BRANCH  29  30
ATOM     30  O6  NAG d 902       9.118 -12.167  31.743  0.00  0.00    -0.398 OA
ATOM     31  H   NAG d 902       8.784 -11.272  31.910  0.00  0.00     0.209 HD
ENDBRANCH  29  30
ENDBRANCH   4  29
BRANCH   3  32
ATOM     32  O1  NAG d 902       5.374 -12.443  26.854  0.00  0.00    -0.369 OA
ATOM     33  H   NAG d 902       5.660 -11.977  26.052  0.00  0.00     0.212 HD
ENDBRANCH   3  32
TORSDOF 11
ENDMDL
MODEL 58
REMARK VINA RESULT:      -6.3      2.173      3.051
REMARK  11 active torsions:
REMARK  status: ('A' for Active; 'I' for Inactive)
REMARK    1  A    between atoms: C4_1  and  O4_9 
REMARK    2  A    between atoms: O6_3  and  C6_15 
REMARK    3  A    between atoms: C1_4  and  O1_21 
REMARK    4  A    between atoms: O2_6  and  C2_13 
REMARK       I    between atoms: C7_7  and  N2_10 
REMARK    5  A    between atoms: O3_8  and  C1_12 
REMARK    6  A    between atoms: O3_8  and  C3_16 
REMARK    7  A    between atoms: N2_10  and  C2_20 
REMARK    8  A    between atoms: C5_11  and  C6_15 
REMARK    9  A    between atoms: C5_18  and  C6_25 
REMARK   10  A    between atoms: O3_22  and  C3_24 
REMARK   11  A    between atoms: O6A_23  and  C6_25 
ROOT
ATOM      1  C4  NAG d 902       8.342 -10.253  31.453  0.00  0.00     0.180 C 
ATOM      2  O5  NAG d 902       8.589 -12.699  31.158  0.00  0.00    -0.349 OA
ATOM      3  C1  NAG d 902       7.115 -12.891  30.988  0.00  0.00     0.282 C 
ATOM      4  C5  NAG d 902       9.072 -11.348  30.695  0.00  0.00     0.179 C 
ATOM      5  C3  NAG d 902       6.813 -10.431  31.255  0.00  0.00     0.183 C 
ATOM      6  C2  NAG d 902       6.366 -11.804  31.770  0.00  0.00     0.171 C 
ENDROOT
BRANCH   5   7
ATOM      7  O3  NAG d 902       6.075  -9.414  31.975  0.00  0.00    -0.348 OA
BRANCH   7   8
ATOM      8  C1  GCD d 901       5.105  -8.630  31.311  0.00  0.00     0.298 C 
ATOM      9  C2  GCD d 901       5.358  -8.541  29.838  0.00  0.00     0.206 C 
ATOM     10  C3  GCD d 901       4.198  -7.657  29.261  0.00  0.00     0.177 C 
ATOM     11  C4  GCD d 901       2.785  -7.834  29.855  0.00  0.00     0.051 C 
ATOM     12  C5  GCD d 901       2.593  -8.723  30.852  0.00  0.00     0.144 C 
ATOM     13  O5  GCD d 901       3.794  -9.353  31.506  0.00  0.00    -0.311 OA
BRANCH   9  14
ATOM     14  O2  GCD d 901       6.661  -7.939  29.547  0.00  0.00    -0.388 OA
ATOM     15  H   GCD d 901       7.360  -8.596  29.690  0.00  0.00     0.210 HD
ENDBRANCH   9  14
BRANCH  10  16
ATOM     16  O3  GCD d 901       4.383  -7.579  27.860  0.00  0.00    -0.389 OA
ATOM     17  H   GCD d 901       5.219  -8.007  27.620  0.00  0.00     0.210 HD
ENDBRANCH  10  16
BRANCH  12  18
ATOM     18  C6  GCD d 901       1.261  -8.985  31.507  0.00  0.00     0.200 C 
ATOM     19  O6B GCD d 901       1.318  -8.784  32.774  0.00  0.00    -0.645 OA
BRANCH  18  20
ATOM     20  O6A GCD d 901       0.381  -9.603  30.795  0.00  0.00    -0.771 OA
ATOM     21  H   GCD d 901      -0.382  -9.965  31.203  0.00  0.00     0.167 HD
ENDBRANCH  18  20
ENDBRANCH  12  18
ENDBRANCH   7   8
ENDBRANCH   5   7
BRANCH   1  22
ATOM     22  O4  NAG d 902       8.801  -8.963  30.983  0.00  0.00    -0.390 OA
ATOM     23  H   NAG d 902       8.103  -8.544  30.456  0.00  0.00     0.210 HD
ENDBRANCH   1  22
BRANCH   6  24
ATOM     24  N2  NAG d 902       4.857 -11.907  31.621  0.00  0.00    -0.349 N 
ATOM     25  C7  NAG d 902       4.125 -12.582  32.651  0.00  0.00     0.214 C 
ATOM     26  O7  NAG d 902       4.650 -13.113  33.668  0.00  0.00    -0.274 OA
ATOM     27  C8  NAG d 902       2.628 -12.555  32.415  0.00  0.00     0.117 C 
ATOM     28  H   NAG d 902       4.397 -11.522  30.841  0.00  0.00     0.163 HD
ENDBRANCH   6  24
BRANCH   4  29
ATOM     29  C6  NAG d 902      10.583 -11.215  30.888  0.00  0.00     0.198 C 
BRANCH  29  30
ATOM     30  O6  NAG d 902      11.160 -12.242  31.739  0.00  0.00    -0.398 OA
ATOM     31  H   NAG d 902      12.104 -12.338  31.534  0.00  0.00     0.209 HD
ENDBRANCH  29  30
ENDBRANCH   4  29
BRANCH   3  32
ATOM     32  O1  NAG d 902       6.704 -14.179  31.431  0.00  0.00    -0.369 OA
ATOM     33  H   NAG d 902       7.317 -14.496  32.113  0.00  0.00     0.212 HD
ENDBRANCH   3  32
TORSDOF 11
ENDMDL
MODEL 59
REMARK VINA RESULT:      -6.3      3.538      5.475
REMARK  11 active torsions:
REMARK  status: ('A' for Active; 'I' for Inactive)
REMARK    1  A    between atoms: C4_1  and  O4_9 
REMARK    2  A    between atoms: O6_3  and  C6_15 
REMARK    3  A    between atoms: C1_4  and  O1_21 
REMARK    4  A    between atoms: O2_6  and  C2_13 
REMARK       I    between atoms: C7_7  and  N2_10 
REMARK    5  A    between atoms: O3_8  and  C1_12 
REMARK    6  A    between atoms: O3_8  and  C3_16 
REMARK    7  A    between atoms: N2_10  and  C2_20 
REMARK    8  A    between atoms: C5_11  and  C6_15 
REMARK    9  A    between atoms: C5_18  and  C6_25 
REMARK   10  A    between atoms: O3_22  and  C3_24 
REMARK   11  A    between atoms: O6A_23  and  C6_25 
ROOT
ATOM      1  C4  NAG d 902       5.704 -11.478  29.237  0.00  0.00     0.180 C 
ATOM      2  O5  NAG d 902       5.736 -12.490  31.497  0.00  0.00    -0.349 OA
ATOM      3  C1  NAG d 902       4.273 -12.242  31.697  0.00  0.00     0.282 C 
ATOM      4  C5  NAG d 902       6.114 -12.692  30.052  0.00  0.00     0.179 C 
ATOM      5  C3  NAG d 902       4.182 -11.235  29.418  0.00  0.00     0.183 C 
ATOM      6  C2  NAG d 902       3.852 -11.002  30.897  0.00  0.00     0.171 C 
ENDROOT
BRANCH   5   7
ATOM      7  O3  NAG d 902       3.749 -10.074  28.669  0.00  0.00    -0.348 OA
BRANCH   7   8
ATOM      8  C1  GCD d 901       2.674 -10.171  27.757  0.00  0.00     0.298 C 
ATOM      9  C2  GCD d 901       2.548 -11.544  27.173  0.00  0.00     0.206 C 
ATOM     10  C3  GCD d 901       1.315 -11.481  26.205  0.00  0.00     0.177 C 
ATOM     11  C4  GCD d 901       0.093 -10.645  26.637  0.00  0.00     0.051 C 
ATOM     12  C5  GCD d 901       0.126  -9.987  27.815  0.00  0.00     0.144 C 
ATOM     13  O5  GCD d 901       1.428  -9.905  28.567  0.00  0.00    -0.311 OA
BRANCH   9  14
ATOM     14  O2  GCD d 901       3.757 -11.936  26.446  0.00  0.00    -0.388 OA
ATOM     15  H   GCD d 901       4.476 -11.320  26.657  0.00  0.00     0.210 HD
ENDBRANCH   9  14
BRANCH  10  16
ATOM     16  O3  GCD d 901       1.142 -12.775  25.657  0.00  0.00    -0.389 OA
ATOM     17  H   GCD d 901       1.841 -12.948  25.007  0.00  0.00     0.210 HD
ENDBRANCH  10  16
BRANCH  12  18
ATOM     18  C6  GCD d 901      -1.006  -9.143  28.344  0.00  0.00     0.200 C 
ATOM     19  O6B GCD d 901      -0.683  -7.900  28.377  0.00  0.00    -0.645 OA
BRANCH  18  20
ATOM     20  O6A GCD d 901      -1.976  -9.772  28.915  0.00  0.00    -0.771 OA
ATOM     21  H   GCD d 901      -2.722 -10.038  28.414  0.00  0.00     0.167 HD
ENDBRANCH  18  20
ENDBRANCH  12  18
ENDBRANCH   7   8
ENDBRANCH   5   7
BRANCH   1  22
ATOM     22  O4  NAG d 902       6.054 -11.695  27.850  0.00  0.00    -0.390 OA
ATOM     23  H   NAG d 902       5.256 -11.915  27.346  0.00  0.00     0.210 HD
ENDBRANCH   1  22
BRANCH   6  24
ATOM     24  N2  NAG d 902       2.368 -10.700  31.020  0.00  0.00    -0.349 N 
ATOM     25  C7  NAG d 902       1.953  -9.761  32.018  0.00  0.00     0.214 C 
ATOM     26  O7  NAG d 902       2.736  -9.178  32.817  0.00  0.00    -0.274 OA
ATOM     27  C8  NAG d 902       0.460  -9.500  31.989  0.00  0.00     0.117 C 
ATOM     28  H   NAG d 902       1.712 -11.138  30.430  0.00  0.00     0.163 HD
ENDBRANCH   6  24
BRANCH   4  29
ATOM     29  C6  NAG d 902       7.616 -12.946  29.913  0.00  0.00     0.198 C 
BRANCH  29  30
ATOM     30  O6  NAG d 902       7.999 -13.514  28.632  0.00  0.00    -0.398 OA
ATOM     31  H   NAG d 902       7.649 -14.416  28.560  0.00  0.00     0.209 HD
ENDBRANCH  29  30
ENDBRANCH   4  29
BRANCH   3  32
ATOM     32  O1  NAG d 902       3.960 -12.063  33.073  0.00  0.00    -0.369 OA
ATOM     33  H   NAG d 902       4.756 -12.212  33.607  0.00  0.00     0.212 HD
ENDBRANCH   3  32
TORSDOF 11
ENDMDL
MODEL 60
REMARK VINA RESULT:      -6.3      2.727      5.685
REMARK  11 active torsions:
REMARK  status: ('A' for Active; 'I' for Inactive)
REMARK    1  A    between atoms: C4_1  and  O4_9 
REMARK    2  A    between atoms: O6_3  and  C6_15 
REMARK    3  A    between atoms: C1_4  and  O1_21 
REMARK    4  A    between atoms: O2_6  and  C2_13 
REMARK       I    between atoms: C7_7  and  N2_10 
REMARK    5  A    between atoms: O3_8  and  C1_12 
REMARK    6  A    between atoms: O3_8  and  C3_16 
REMARK    7  A    between atoms: N2_10  and  C2_20 
REMARK    8  A    between atoms: C5_11  and  C6_15 
REMARK    9  A    between atoms: C5_18  and  C6_25 
REMARK   10  A    between atoms: O3_22  and  C3_24 
REMARK   11  A    between atoms: O6A_23  and  C6_25 
ROOT
ATOM      1  C4  NAG d 902       4.148  -7.659  31.243  0.00  0.00     0.180 C 
ATOM      2  O5  NAG d 902       2.186  -6.812  29.993  0.00  0.00    -0.349 OA
ATOM      3  C1  NAG d 902       1.959  -8.134  29.330  0.00  0.00     0.282 C 
ATOM      4  C5  NAG d 902       2.821  -6.929  31.355  0.00  0.00     0.179 C 
ATOM      5  C3  NAG d 902       3.913  -9.043  30.583  0.00  0.00     0.183 C 
ATOM      6  C2  NAG d 902       3.298  -8.871  29.189  0.00  0.00     0.171 C 
ENDROOT
BRANCH   5   7
ATOM      7  O3  NAG d 902       5.158  -9.769  30.442  0.00  0.00    -0.348 OA
BRANCH   7   8
ATOM      8  C1  GCD d 901       5.281 -11.082  30.949  0.00  0.00     0.298 C 
ATOM      9  C2  GCD d 901       6.504 -11.251  31.796  0.00  0.00     0.206 C 
ATOM     10  C3  GCD d 901       6.480 -12.744  32.281  0.00  0.00     0.177 C 
ATOM     11  C4  GCD d 901       5.118 -13.367  32.650  0.00  0.00     0.051 C 
ATOM     12  C5  GCD d 901       3.998 -12.624  32.531  0.00  0.00     0.144 C 
ATOM     13  O5  GCD d 901       4.078 -11.290  31.837  0.00  0.00    -0.311 OA
BRANCH   9  14
ATOM     14  O2  GCD d 901       7.728 -10.972  31.044  0.00  0.00    -0.388 OA
ATOM     15  H   GCD d 901       7.950 -10.031  31.125  0.00  0.00     0.210 HD
ENDBRANCH   9  14
BRANCH  10  16
ATOM     16  O3  GCD d 901       7.606 -12.934  33.118  0.00  0.00    -0.389 OA
ATOM     17  H   GCD d 901       7.325 -12.920  34.046  0.00  0.00     0.210 HD
ENDBRANCH  10  16
BRANCH  12  18
ATOM     18  C6  GCD d 901       2.614 -13.122  32.865  0.00  0.00     0.200 C 
ATOM     19  O6B GCD d 901       2.378 -13.030  34.124  0.00  0.00    -0.645 OA
BRANCH  18  20
ATOM     20  O6A GCD d 901       2.003 -13.786  31.944  0.00  0.00    -0.771 OA
ATOM     21  H   GCD d 901       1.858 -13.398  31.103  0.00  0.00     0.167 HD
ENDBRANCH  18  20
ENDBRANCH  12  18
ENDBRANCH   7   8
ENDBRANCH   5   7
BRANCH   1  22
ATOM     22  O4  NAG d 902       4.735  -7.782  32.560  0.00  0.00    -0.390 OA
ATOM     23  H   NAG d 902       4.945  -8.712  32.735  0.00  0.00     0.210 HD
ENDBRANCH   1  22
BRANCH   6  24
ATOM     24  N2  NAG d 902       3.150 -10.242  28.553  0.00  0.00    -0.349 N 
ATOM     25  C7  NAG d 902       3.778 -10.468  27.286  0.00  0.00     0.214 C 
ATOM     26  O7  NAG d 902       4.434  -9.597  26.651  0.00  0.00    -0.274 OA
ATOM     27  C8  NAG d 902       3.611 -11.893  26.797  0.00  0.00     0.117 C 
ATOM     28  H   NAG d 902       2.637 -10.955  28.999  0.00  0.00     0.163 HD
ENDBRANCH   6  24
BRANCH   4  29
ATOM     29  C6  NAG d 902       3.021  -5.549  31.983  0.00  0.00     0.198 C 
BRANCH  29  30
ATOM     30  O6  NAG d 902       2.876  -5.535  33.429  0.00  0.00    -0.398 OA
ATOM     31  H   NAG d 902       3.355  -4.775  33.794  0.00  0.00     0.209 HD
ENDBRANCH  29  30
ENDBRANCH   4  29
BRANCH   3  32
ATOM     32  O1  NAG d 902       1.353  -7.977  28.052  0.00  0.00    -0.369 OA
ATOM     33  H   NAG d 902       2.025  -7.702  27.408  0.00  0.00     0.212 HD
ENDBRANCH   3  32
TORSDOF 11
ENDMDL
MODEL 61
REMARK VINA RESULT:      -6.3      2.508      4.489
REMARK  11 active torsions:
REMARK  status: ('A' for Active; 'I' for Inactive)
REMARK    1  A    between atoms: C4_1  and  O4_9 
REMARK    2  A    between atoms: O6_3  and  C6_15 
REMARK    3  A    between atoms: C1_4  and  O1_21 
REMARK    4  A    between atoms: O2_6  and  C2_13 
REMARK       I    between atoms: C7_7  and  N2_10 
REMARK    5  A    between atoms: O3_8  and  C1_12 
REMARK    6  A    between atoms: O3_8  and  C3_16 
REMARK    7  A    between atoms: N2_10  and  C2_20 
REMARK    8  A    between atoms: C5_11  and  C6_15 
REMARK    9  A    between atoms: C5_18  and  C6_25 
REMARK   10  A    between atoms: O3_22  and  C3_24 
REMARK   11  A    between atoms: O6A_23  and  C6_25 
ROOT
ATOM      1  C4  NAG d 902       7.187 -11.830  29.548  0.00  0.00     0.180 C 
ATOM      2  O5  NAG d 902       9.402 -12.865  29.937  0.00  0.00    -0.349 OA
ATOM      3  C1  NAG d 902       9.762 -11.853  30.978  0.00  0.00     0.282 C 
ATOM      4  C5  NAG d 902       7.920 -13.126  29.846  0.00  0.00     0.179 C 
ATOM      5  C3  NAG d 902       7.534 -10.786  30.642  0.00  0.00     0.183 C 
ATOM      6  C2  NAG d 902       9.046 -10.531  30.673  0.00  0.00     0.171 C 
ENDROOT
BRANCH   5   7
ATOM      7  O3  NAG d 902       6.867  -9.526  30.387  0.00  0.00    -0.348 OA
BRANCH   7   8
ATOM      8  C1  GCD d 901       5.769  -9.125  31.181  0.00  0.00     0.298 C 
ATOM      9  C2  GCD d 901       5.809  -7.665  31.510  0.00  0.00     0.206 C 
ATOM     10  C3  GCD d 901       4.529  -7.391  32.375  0.00  0.00     0.177 C 
ATOM     11  C4  GCD d 901       3.226  -8.125  31.999  0.00  0.00     0.051 C 
ATOM     12  C5  GCD d 901       3.228  -8.984  30.958  0.00  0.00     0.144 C 
ATOM     13  O5  GCD d 901       4.543  -9.370  30.335  0.00  0.00    -0.311 OA
BRANCH   9  14
ATOM     14  O2  GCD d 901       7.020  -7.309  32.251  0.00  0.00    -0.388 OA
ATOM     15  H   GCD d 901       6.807  -7.218  33.193  0.00  0.00     0.210 HD
ENDBRANCH   9  14
BRANCH  10  16
ATOM     16  O3  GCD d 901       4.512  -6.007  32.676  0.00  0.00    -0.389 OA
ATOM     17  H   GCD d 901       3.675  -5.782  33.113  0.00  0.00     0.210 HD
ENDBRANCH  10  16
BRANCH  12  18
ATOM     18  C6  GCD d 901       2.017  -9.755  30.495  0.00  0.00     0.200 C 
ATOM     19  O6B GCD d 901       1.410  -9.140  29.544  0.00  0.00    -0.645 OA
BRANCH  18  20
ATOM     20  O6A GCD d 901       1.625 -10.721  31.253  0.00  0.00    -0.771 OA
ATOM     21  H   GCD d 901       1.566 -10.596  32.180  0.00  0.00     0.167 HD
ENDBRANCH  18  20
ENDBRANCH  12  18
ENDBRANCH   7   8
ENDBRANCH   5   7
BRANCH   1  22
ATOM     22  O4  NAG d 902       5.765 -12.092  29.484  0.00  0.00    -0.390 OA
ATOM     23  H   NAG d 902       5.277 -11.280  29.693  0.00  0.00     0.210 HD
ENDBRANCH   1  22
BRANCH   6  24
ATOM     24  N2  NAG d 902       9.333  -9.455  31.707  0.00  0.00    -0.349 N 
ATOM     25  C7  NAG d 902      10.456  -8.594  31.487  0.00  0.00     0.214 C 
ATOM     26  O7  NAG d 902      11.237  -8.679  30.500  0.00  0.00    -0.274 OA
ATOM     27  C8  NAG d 902      10.589  -7.525  32.554  0.00  0.00     0.117 C 
ATOM     28  H   NAG d 902       8.763  -9.353  32.503  0.00  0.00     0.163 HD
ENDBRANCH   6  24
BRANCH   4  29
ATOM     29  C6  NAG d 902       7.616 -14.171  28.772  0.00  0.00     0.198 C 
BRANCH  29  30
ATOM     30  O6  NAG d 902       8.519 -14.125  27.635  0.00  0.00    -0.398 OA
ATOM     31  H   NAG d 902       8.018 -14.281  26.818  0.00  0.00     0.209 HD
ENDBRANCH  29  30
ENDBRANCH   4  29
BRANCH   3  32
ATOM     32  O1  NAG d 902      11.168 -11.643  31.034  0.00  0.00    -0.369 OA
ATOM     33  H   NAG d 902      11.594 -12.412  31.446  0.00  0.00     0.212 HD
ENDBRANCH   3  32
TORSDOF 11
ENDMDL
MODEL 62
REMARK VINA RESULT:      -6.3      2.252      5.972
REMARK  11 active torsions:
REMARK  status: ('A' for Active; 'I' for Inactive)
REMARK    1  A    between atoms: C4_1  and  O4_9 
REMARK    2  A    between atoms: O6_3  and  C6_15 
REMARK    3  A    between atoms: C1_4  and  O1_21 
REMARK    4  A    between atoms: O2_6  and  C2_13 
REMARK       I    between atoms: C7_7  and  N2_10 
REMARK    5  A    between atoms: O3_8  and  C1_12 
REMARK    6  A    between atoms: O3_8  and  C3_16 
REMARK    7  A    between atoms: N2_10  and  C2_20 
REMARK    8  A    between atoms: C5_11  and  C6_15 
REMARK    9  A    between atoms: C5_18  and  C6_25 
REMARK   10  A    between atoms: O3_22  and  C3_24 
REMARK   11  A    between atoms: O6A_23  and  C6_25 
ROOT
ATOM      1  C4  NAG d 902       9.987 -10.556  31.024  0.00  0.00     0.180 C 
ATOM      2  O5  NAG d 902       9.453 -12.956  30.729  0.00  0.00    -0.349 OA
ATOM      3  C1  NAG d 902       8.136 -12.649  30.089  0.00  0.00     0.282 C 
ATOM      4  C5  NAG d 902      10.492 -11.888  30.499  0.00  0.00     0.179 C 
ATOM      5  C3  NAG d 902       8.635 -10.219  30.340  0.00  0.00     0.183 C 
ATOM      6  C2  NAG d 902       7.604 -11.316  30.631  0.00  0.00     0.171 C 
ENDROOT
BRANCH   5   7
ATOM      7  O3  NAG d 902       8.108  -8.961  30.825  0.00  0.00    -0.348 OA
BRANCH   7   8
ATOM      8  C1  GCD d 901       8.321  -7.769  30.097  0.00  0.00     0.298 C 
ATOM      9  C2  GCD d 901       7.062  -6.976  29.926  0.00  0.00     0.206 C 
ATOM     10  C3  GCD d 901       7.475  -5.696  29.117  0.00  0.00     0.177 C 
ATOM     11  C4  GCD d 901       8.835  -5.042  29.435  0.00  0.00     0.051 C 
ATOM     12  C5  GCD d 901       9.628  -5.592  30.378  0.00  0.00     0.144 C 
ATOM     13  O5  GCD d 901       9.269  -6.944  30.934  0.00  0.00    -0.311 OA
BRANCH   9  14
ATOM     14  O2  GCD d 901       6.037  -7.734  29.207  0.00  0.00    -0.388 OA
ATOM     15  H   GCD d 901       5.895  -8.586  29.649  0.00  0.00     0.210 HD
ENDBRANCH   9  14
BRANCH  10  16
ATOM     16  O3  GCD d 901       6.314  -4.900  28.965  0.00  0.00    -0.389 OA
ATOM     17  H   GCD d 901       6.315  -4.491  28.086  0.00  0.00     0.210 HD
ENDBRANCH  10  16
BRANCH  12  18
ATOM     18  C6  GCD d 901      10.974  -5.041  30.777  0.00  0.00     0.200 C 
ATOM     19  O6B GCD d 901      10.850  -4.002  31.522  0.00  0.00    -0.645 OA
BRANCH  18  20
ATOM     20  O6A GCD d 901      11.995  -5.491  30.131  0.00  0.00    -0.771 OA
ATOM     21  H   GCD d 901      11.874  -5.949  29.322  0.00  0.00     0.167 HD
ENDBRANCH  18  20
ENDBRANCH  12  18
ENDBRANCH   7   8
ENDBRANCH   5   7
BRANCH   1  22
ATOM     22  O4  NAG d 902      10.985  -9.538  30.777  0.00  0.00    -0.390 OA
ATOM     23  H   NAG d 902      11.845  -9.841  31.105  0.00  0.00     0.210 HD
ENDBRANCH   1  22
BRANCH   6  24
ATOM     24  N2  NAG d 902       6.280 -10.913  30.004  0.00  0.00    -0.349 N 
ATOM     25  C7  NAG d 902       5.099 -11.005  30.808  0.00  0.00     0.214 C 
ATOM     26  O7  NAG d 902       5.079 -11.416  32.001  0.00  0.00    -0.274 OA
ATOM     27  C8  NAG d 902       3.861 -10.511  30.086  0.00  0.00     0.117 C 
ATOM     28  H   NAG d 902       6.236 -10.598  29.072  0.00  0.00     0.163 HD
ENDBRANCH   6  24
BRANCH   4  29
ATOM     29  C6  NAG d 902      11.815 -12.260  31.170  0.00  0.00     0.198 C 
BRANCH  29  30
ATOM     30  O6  NAG d 902      12.125 -11.460  32.342  0.00  0.00    -0.398 OA
ATOM     31  H   NAG d 902      11.346 -10.938  32.592  0.00  0.00     0.209 HD
ENDBRANCH  29  30
ENDBRANCH   4  29
BRANCH   3  32
ATOM     32  O1  NAG d 902       7.190 -13.684  30.327  0.00  0.00    -0.369 OA
ATOM     33  H   NAG d 902       6.490 -13.642  29.655  0.00  0.00     0.212 HD
ENDBRANCH   3  32
TORSDOF 11
ENDMDL
MODEL 63
REMARK VINA RESULT:      -6.2      3.008      5.274
REMARK  11 active torsions:
REMARK  status: ('A' for Active; 'I' for Inactive)
REMARK    1  A    between atoms: C4_1  and  O4_9 
REMARK    2  A    between atoms: O6_3  and  C6_15 
REMARK    3  A    between atoms: C1_4  and  O1_21 
REMARK    4  A    between atoms: O2_6  and  C2_13 
REMARK       I    between atoms: C7_7  and  N2_10 
REMARK    5  A    between atoms: O3_8  and  C1_12 
REMARK    6  A    between atoms: O3_8  and  C3_16 
REMARK    7  A    between atoms: N2_10  and  C2_20 
REMARK    8  A    between atoms: C5_11  and  C6_15 
REMARK    9  A    between atoms: C5_18  and  C6_25 
REMARK   10  A    between atoms: O3_22  and  C3_24 
REMARK   11  A    between atoms: O6A_23  and  C6_25 
ROOT
ATOM      1  C4  NAG d 902      10.020  -7.114  30.741  0.00  0.00     0.180 C 
ATOM      2  O5  NAG d 902       8.890  -5.002  31.371  0.00  0.00    -0.349 OA
ATOM      3  C1  NAG d 902       7.546  -5.660  31.410  0.00  0.00     0.282 C 
ATOM      4  C5  NAG d 902      10.023  -5.940  31.705  0.00  0.00     0.179 C 
ATOM      5  C3  NAG d 902       8.637  -7.817  30.800  0.00  0.00     0.183 C 
ATOM      6  C2  NAG d 902       7.524  -6.833  30.422  0.00  0.00     0.171 C 
ENDROOT
BRANCH   5   7
ATOM      7  O3  NAG d 902       8.585  -8.936  29.883  0.00  0.00    -0.348 OA
BRANCH   7   8
ATOM      8  C1  GCD d 901       8.635 -10.262  30.369  0.00  0.00     0.298 C 
ATOM      9  C2  GCD d 901       8.128 -10.370  31.774  0.00  0.00     0.206 C 
ATOM     10  C3  GCD d 901       8.241 -11.890  32.149  0.00  0.00     0.177 C 
ATOM     11  C4  GCD d 901       7.913 -12.933  31.062  0.00  0.00     0.051 C 
ATOM     12  C5  GCD d 901       7.557 -12.514  29.829  0.00  0.00     0.144 C 
ATOM     13  O5  GCD d 901       7.703 -11.055  29.485  0.00  0.00    -0.311 OA
BRANCH   9  14
ATOM     14  O2  GCD d 901       8.912  -9.550  32.698  0.00  0.00    -0.388 OA
ATOM     15  H   GCD d 901       8.452  -8.710  32.856  0.00  0.00     0.210 HD
ENDBRANCH   9  14
BRANCH  10  16
ATOM     16  O3  GCD d 901       7.736 -12.039  33.463  0.00  0.00    -0.389 OA
ATOM     17  H   GCD d 901       8.290 -12.667  33.953  0.00  0.00     0.210 HD
ENDBRANCH  10  16
BRANCH  12  18
ATOM     18  C6  GCD d 901       7.210 -13.438  28.689  0.00  0.00     0.200 C 
ATOM     19  O6B GCD d 901       7.638 -14.629  28.909  0.00  0.00    -0.645 OA
BRANCH  18  20
ATOM     20  O6A GCD d 901       6.806 -12.881  27.599  0.00  0.00    -0.771 OA
ATOM     21  H   GCD d 901       7.339 -12.238  27.175  0.00  0.00     0.167 HD
ENDBRANCH  18  20
ENDBRANCH  12  18
ENDBRANCH   7   8
ENDBRANCH   5   7
BRANCH   1  22
ATOM     22  O4  NAG d 902      11.098  -8.015  31.087  0.00  0.00    -0.390 OA
ATOM     23  H   NAG d 902      11.874  -7.815  30.542  0.00  0.00     0.210 HD
ENDBRANCH   1  22
BRANCH   6  24
ATOM     24  N2  NAG d 902       6.200  -7.578  30.424  0.00  0.00    -0.349 N 
ATOM     25  C7  NAG d 902       5.412  -7.554  29.228  0.00  0.00     0.214 C 
ATOM     26  O7  NAG d 902       5.735  -6.941  28.174  0.00  0.00    -0.274 OA
ATOM     27  C8  NAG d 902       4.152  -8.390  29.342  0.00  0.00     0.117 C 
ATOM     28  H   NAG d 902       5.892  -8.063  31.224  0.00  0.00     0.163 HD
ENDBRANCH   6  24
BRANCH   4  29
ATOM     29  C6  NAG d 902      11.365  -5.211  31.655  0.00  0.00     0.198 C 
BRANCH  29  30
ATOM     30  O6  NAG d 902      12.071  -5.364  30.394  0.00  0.00    -0.398 OA
ATOM     31  H   NAG d 902      11.867  -6.233  30.013  0.00  0.00     0.209 HD
ENDBRANCH  29  30
ENDBRANCH   4  29
BRANCH   3  32
ATOM     32  O1  NAG d 902       6.509  -4.739  31.095  0.00  0.00    -0.369 OA
ATOM     33  H   NAG d 902       6.122  -4.394  31.916  0.00  0.00     0.212 HD
ENDBRANCH   3  32
TORSDOF 11
ENDMDL
MODEL 64
REMARK VINA RESULT:      -6.2      3.003      7.120
REMARK  11 active torsions:
REMARK  status: ('A' for Active; 'I' for Inactive)
REMARK    1  A    between atoms: C4_1  and  O4_9 
REMARK    2  A    between atoms: O6_3  and  C6_15 
REMARK    3  A    between atoms: C1_4  and  O1_21 
REMARK    4  A    between atoms: O2_6  and  C2_13 
REMARK       I    between atoms: C7_7  and  N2_10 
REMARK    5  A    between atoms: O3_8  and  C1_12 
REMARK    6  A    between atoms: O3_8  and  C3_16 
REMARK    7  A    between atoms: N2_10  and  C2_20 
REMARK    8  A    between atoms: C5_11  and  C6_15 
REMARK    9  A    between atoms: C5_18  and  C6_25 
REMARK   10  A    between atoms: O3_22  and  C3_24 
REMARK   11  A    between atoms: O6A_23  and  C6_25 
ROOT
ATOM      1  C4  NAG d 902       2.725 -11.376  28.287  0.00  0.00     0.180 C 
ATOM      2  O5  NAG d 902       0.735  -9.946  27.926  0.00  0.00    -0.349 OA
ATOM      3  C1  NAG d 902       1.254  -8.885  28.844  0.00  0.00     0.282 C 
ATOM      4  C5  NAG d 902       1.828 -10.732  27.245  0.00  0.00     0.179 C 
ATOM      5  C3  NAG d 902       3.289 -10.275  29.223  0.00  0.00     0.183 C 
ATOM      6  C2  NAG d 902       2.143  -9.528  29.917  0.00  0.00     0.171 C 
ENDROOT
BRANCH   5   7
ATOM      7  O3  NAG d 902       4.140 -10.849  30.246  0.00  0.00    -0.348 OA
BRANCH   7   8
ATOM      8  C1  GCD d 901       5.545 -10.744  30.147  0.00  0.00     0.298 C 
ATOM      9  C2  GCD d 901       6.170 -10.268  31.421  0.00  0.00     0.206 C 
ATOM     10  C3  GCD d 901       7.714 -10.220  31.144  0.00  0.00     0.177 C 
ATOM     11  C4  GCD d 901       8.332 -11.337  30.280  0.00  0.00     0.051 C 
ATOM     12  C5  GCD d 901       7.535 -12.304  29.780  0.00  0.00     0.144 C 
ATOM     13  O5  GCD d 901       6.041 -12.146  29.891  0.00  0.00    -0.311 OA
BRANCH   9  14
ATOM     14  O2  GCD d 901       5.673  -8.946  31.808  0.00  0.00    -0.388 OA
ATOM     15  H   GCD d 901       5.312  -8.987  32.708  0.00  0.00     0.210 HD
ENDBRANCH   9  14
BRANCH  10  16
ATOM     16  O3  GCD d 901       8.345  -9.806  32.342  0.00  0.00    -0.389 OA
ATOM     17  H   GCD d 901       7.870 -10.177  33.102  0.00  0.00     0.210 HD
ENDBRANCH  10  16
BRANCH  12  18
ATOM     18  C6  GCD d 901       8.024 -13.447  28.926  0.00  0.00     0.200 C 
ATOM     19  O6B GCD d 901       9.227 -13.778  29.237  0.00  0.00    -0.645 OA
BRANCH  18  20
ATOM     20  O6A GCD d 901       7.320 -13.731  27.885  0.00  0.00    -0.771 OA
ATOM     21  H   GCD d 901       7.151 -13.073  27.239  0.00  0.00     0.167 HD
ENDBRANCH  18  20
ENDBRANCH  12  18
ENDBRANCH   7   8
ENDBRANCH   5   7
BRANCH   1  22
ATOM     22  O4  NAG d 902       3.779 -12.108  27.619  0.00  0.00    -0.390 OA
ATOM     23  H   NAG d 902       4.581 -12.091  28.165  0.00  0.00     0.210 HD
ENDBRANCH   1  22
BRANCH   6  24
ATOM     24  N2  NAG d 902       2.740  -8.509  30.873  0.00  0.00    -0.349 N 
ATOM     25  C7  NAG d 902       2.044  -8.249  32.098  0.00  0.00     0.214 C 
ATOM     26  O7  NAG d 902       0.957  -8.796  32.430  0.00  0.00    -0.274 OA
ATOM     27  C8  NAG d 902       2.779  -7.267  32.989  0.00  0.00     0.117 C 
ATOM     28  H   NAG d 902       3.579  -8.043  30.658  0.00  0.00     0.163 HD
ENDBRANCH   6  24
BRANCH   4  29
ATOM     29  C6  NAG d 902       1.237 -11.794  26.318  0.00  0.00     0.198 C 
BRANCH  29  30
ATOM     30  O6  NAG d 902       1.195 -11.397  24.920  0.00  0.00    -0.398 OA
ATOM     31  H   NAG d 902       1.987 -10.879  24.708  0.00  0.00     0.209 HD
ENDBRANCH  29  30
ENDBRANCH   4  29
BRANCH   3  32
ATOM     32  O1  NAG d 902       0.192  -8.166  29.459  0.00  0.00    -0.369 OA
ATOM     33  H   NAG d 902      -0.613  -8.707  29.448  0.00  0.00     0.212 HD
ENDBRANCH   3  32
TORSDOF 11
ENDMDL
MODEL 65
REMARK VINA RESULT:      -6.2      1.939      6.885
REMARK  11 active torsions:
REMARK  status: ('A' for Active; 'I' for Inactive)
REMARK    1  A    between atoms: C4_1  and  O4_9 
REMARK    2  A    between atoms: O6_3  and  C6_15 
REMARK    3  A    between atoms: C1_4  and  O1_21 
REMARK    4  A    between atoms: O2_6  and  C2_13 
REMARK       I    between atoms: C7_7  and  N2_10 
REMARK    5  A    between atoms: O3_8  and  C1_12 
REMARK    6  A    between atoms: O3_8  and  C3_16 
REMARK    7  A    between atoms: N2_10  and  C2_20 
REMARK    8  A    between atoms: C5_11  and  C6_15 
REMARK    9  A    between atoms: C5_18  and  C6_25 
REMARK   10  A    between atoms: O3_22  and  C3_24 
REMARK   11  A    between atoms: O6A_23  and  C6_25 
ROOT
ATOM      1  C4  NAG d 902       4.265 -12.371  32.489  0.00  0.00     0.180 C 
ATOM      2  O5  NAG d 902       2.440 -11.413  31.116  0.00  0.00    -0.349 OA
ATOM      3  C1  NAG d 902       3.400 -10.633  30.273  0.00  0.00     0.282 C 
ATOM      4  C5  NAG d 902       3.029 -12.687  31.666  0.00  0.00     0.179 C 
ATOM      5  C3  NAG d 902       5.276 -11.588  31.608  0.00  0.00     0.183 C 
ATOM      6  C2  NAG d 902       4.643 -10.286  31.102  0.00  0.00     0.171 C 
ENDROOT
BRANCH   5   7
ATOM      7  O3  NAG d 902       6.467 -11.250  32.360  0.00  0.00    -0.348 OA
BRANCH   7   8
ATOM      8  C1  GCD d 901       7.739 -11.665  31.907  0.00  0.00     0.298 C 
ATOM      9  C2  GCD d 901       7.652 -12.547  30.700  0.00  0.00     0.206 C 
ATOM     10  C3  GCD d 901       9.134 -12.902  30.327  0.00  0.00     0.177 C 
ATOM     11  C4  GCD d 901      10.206 -11.803  30.481  0.00  0.00     0.051 C 
ATOM     12  C5  GCD d 901       9.844 -10.587  30.941  0.00  0.00     0.144 C 
ATOM     13  O5  GCD d 901       8.458 -10.402  31.499  0.00  0.00    -0.311 OA
BRANCH   9  14
ATOM     14  O2  GCD d 901       6.881 -13.762  30.970  0.00  0.00    -0.388 OA
ATOM     15  H   GCD d 901       7.128 -14.450  30.332  0.00  0.00     0.210 HD
ENDBRANCH   9  14
BRANCH  10  16
ATOM     16  O3  GCD d 901       9.095 -13.708  29.164  0.00  0.00    -0.389 OA
ATOM     17  H   GCD d 901       8.581 -14.511  29.344  0.00  0.00     0.210 HD
ENDBRANCH  10  16
BRANCH  12  18
ATOM     18  C6  GCD d 901      10.800  -9.436  31.130  0.00  0.00     0.200 C 
ATOM     19  O6B GCD d 901      10.454  -8.423  30.419  0.00  0.00    -0.645 OA
BRANCH  18  20
ATOM     20  O6A GCD d 901      11.914  -9.703  31.721  0.00  0.00    -0.771 OA
ATOM     21  H   GCD d 901      11.934  -9.827  32.650  0.00  0.00     0.167 HD
ENDBRANCH  18  20
ENDBRANCH  12  18
ENDBRANCH   7   8
ENDBRANCH   5   7
BRANCH   1  22
ATOM     22  O4  NAG d 902       4.831 -13.604  32.991  0.00  0.00    -0.390 OA
ATOM     23  H   NAG d 902       4.266 -13.955  33.697  0.00  0.00     0.210 HD
ENDBRANCH   1  22
BRANCH   6  24
ATOM     24  N2  NAG d 902       5.685  -9.520  30.305  0.00  0.00    -0.349 N 
ATOM     25  C7  NAG d 902       5.980  -8.176  30.700  0.00  0.00     0.214 C 
ATOM     26  O7  NAG d 902       5.418  -7.575  31.657  0.00  0.00    -0.274 OA
ATOM     27  C8  NAG d 902       7.082  -7.551  29.868  0.00  0.00     0.117 C 
ATOM     28  H   NAG d 902       6.145  -9.937  29.540  0.00  0.00     0.163 HD
ENDBRANCH   6  24
BRANCH   4  29
ATOM     29  C6  NAG d 902       2.003 -13.441  32.512  0.00  0.00     0.198 C 
BRANCH  29  30
ATOM     30  O6  NAG d 902       2.100 -13.168  33.935  0.00  0.00    -0.398 OA
ATOM     31  H   NAG d 902       3.014 -12.930  34.157  0.00  0.00     0.209 HD
ENDBRANCH  29  30
ENDBRANCH   4  29
BRANCH   3  32
ATOM     32  O1  NAG d 902       2.802  -9.444  29.771  0.00  0.00    -0.369 OA
ATOM     33  H   NAG d 902       3.473  -8.912  29.315  0.00  0.00     0.212 HD
ENDBRANCH   3  32
TORSDOF 11
ENDMDL
MODEL 66
REMARK VINA RESULT:      -6.2      2.702      6.042
REMARK  11 active torsions:
REMARK  status: ('A' for Active; 'I' for Inactive)
REMARK    1  A    between atoms: C4_1  and  O4_9 
REMARK    2  A    between atoms: O6_3  and  C6_15 
REMARK    3  A    between atoms: C1_4  and  O1_21 
REMARK    4  A    between atoms: O2_6  and  C2_13 
REMARK       I    between atoms: C7_7  and  N2_10 
REMARK    5  A    between atoms: O3_8  and  C1_12 
REMARK    6  A    between atoms: O3_8  and  C3_16 
REMARK    7  A    between atoms: N2_10  and  C2_20 
REMARK    8  A    between atoms: C5_11  and  C6_15 
REMARK    9  A    between atoms: C5_18  and  C6_25 
REMARK   10  A    between atoms: O3_22  and  C3_24 
REMARK   11  A    between atoms: O6A_23  and  C6_25 
ROOT
ATOM      1  C4  NAG d 902       2.371  -9.187  28.946  0.00  0.00     0.180 C 
ATOM      2  O5  NAG d 902       3.821  -7.864  27.437  0.00  0.00    -0.349 OA
ATOM      3  C1  NAG d 902       4.973  -7.922  28.390  0.00  0.00     0.282 C 
ATOM      4  C5  NAG d 902       2.907  -9.060  27.532  0.00  0.00     0.179 C 
ATOM      5  C3  NAG d 902       3.562  -9.277  29.936  0.00  0.00     0.183 C 
ATOM      6  C2  NAG d 902       4.442  -8.026  29.826  0.00  0.00     0.171 C 
ENDROOT
BRANCH   5   7
ATOM      7  O3  NAG d 902       3.095  -9.383  31.303  0.00  0.00    -0.348 OA
BRANCH   7   8
ATOM      8  C1  GCD d 901       3.361 -10.545  32.061  0.00  0.00     0.298 C 
ATOM      9  C2  GCD d 901       2.351 -11.624  31.819  0.00  0.00     0.206 C 
ATOM     10  C3  GCD d 901       2.797 -12.831  32.717  0.00  0.00     0.177 C 
ATOM     11  C4  GCD d 901       4.306 -13.118  32.853  0.00  0.00     0.051 C 
ATOM     12  C5  GCD d 901       5.190 -12.322  32.215  0.00  0.00     0.144 C 
ATOM     13  O5  GCD d 901       4.696 -11.053  31.573  0.00  0.00    -0.311 OA
BRANCH   9  14
ATOM     14  O2  GCD d 901       0.998 -11.190  32.170  0.00  0.00    -0.388 OA
ATOM     15  H   GCD d 901       0.822 -11.404  33.100  0.00  0.00     0.210 HD
ENDBRANCH   9  14
BRANCH  10  16
ATOM     16  O3  GCD d 901       1.883 -13.888  32.488  0.00  0.00    -0.389 OA
ATOM     17  H   GCD d 901       2.297 -14.731  32.730  0.00  0.00     0.210 HD
ENDBRANCH  10  16
BRANCH  12  18
ATOM     18  C6  GCD d 901       6.686 -12.506  32.270  0.00  0.00     0.200 C 
ATOM     19  O6B GCD d 901       7.097 -13.266  31.318  0.00  0.00    -0.645 OA
BRANCH  18  20
ATOM     20  O6A GCD d 901       7.273 -12.129  33.354  0.00  0.00    -0.771 OA
ATOM     21  H   GCD d 901       6.782 -11.706  34.031  0.00  0.00     0.167 HD
ENDBRANCH  18  20
ENDBRANCH  12  18
ENDBRANCH   7   8
ENDBRANCH   5   7
BRANCH   1  22
ATOM     22  O4  NAG d 902       1.513 -10.349  29.027  0.00  0.00    -0.390 OA
ATOM     23  H   NAG d 902       2.007 -11.089  29.413  0.00  0.00     0.210 HD
ENDBRANCH   1  22
BRANCH   6  24
ATOM     24  N2  NAG d 902       5.553  -8.123  30.858  0.00  0.00    -0.349 N 
ATOM     25  C7  NAG d 902       6.020  -6.911  31.460  0.00  0.00     0.214 C 
ATOM     26  O7  NAG d 902       5.583  -5.761  31.179  0.00  0.00    -0.274 OA
ATOM     27  C8  NAG d 902       7.078  -7.155  32.518  0.00  0.00     0.117 C 
ATOM     28  H   NAG d 902       5.940  -8.995  31.105  0.00  0.00     0.163 HD
ENDBRANCH   6  24
BRANCH   4  29
ATOM     29  C6  NAG d 902       1.757  -8.947  26.531  0.00  0.00     0.198 C 
BRANCH  29  30
ATOM     30  O6  NAG d 902       1.371 -10.214  25.934  0.00  0.00    -0.398 OA
ATOM     31  H   NAG d 902       0.943 -10.770  26.604  0.00  0.00     0.209 HD
ENDBRANCH  29  30
ENDBRANCH   4  29
BRANCH   3  32
ATOM     32  O1  NAG d 902       5.811  -6.780  28.262  0.00  0.00    -0.369 OA
ATOM     33  H   NAG d 902       6.741  -7.057  28.278  0.00  0.00     0.212 HD
ENDBRANCH   3  32
TORSDOF 11
ENDMDL
MODEL 67
REMARK VINA RESULT:      -6.2      2.524      6.348
REMARK  11 active torsions:
REMARK  status: ('A' for Active; 'I' for Inactive)
REMARK    1  A    between atoms: C4_1  and  O4_9 
REMARK    2  A    between atoms: O6_3  and  C6_15 
REMARK    3  A    between atoms: C1_4  and  O1_21 
REMARK    4  A    between atoms: O2_6  and  C2_13 
REMARK       I    between atoms: C7_7  and  N2_10 
REMARK    5  A    between atoms: O3_8  and  C1_12 
REMARK    6  A    between atoms: O3_8  and  C3_16 
REMARK    7  A    between atoms: N2_10  and  C2_20 
REMARK    8  A    between atoms: C5_11  and  C6_15 
REMARK    9  A    between atoms: C5_18  and  C6_25 
REMARK   10  A    between atoms: O3_22  and  C3_24 
REMARK   11  A    between atoms: O6A_23  and  C6_25 
ROOT
ATOM      1  C4  NAG d 902       7.698 -12.258  30.361  0.00  0.00     0.180 C 
ATOM      2  O5  NAG d 902       5.761 -12.197  28.819  0.00  0.00    -0.349 OA
ATOM      3  C1  NAG d 902       5.506 -10.749  29.097  0.00  0.00     0.282 C 
ATOM      4  C5  NAG d 902       7.212 -12.584  28.960  0.00  0.00     0.179 C 
ATOM      5  C3  NAG d 902       7.462 -10.750  30.643  0.00  0.00     0.183 C 
ATOM      6  C2  NAG d 902       5.972 -10.412  30.520  0.00  0.00     0.171 C 
ENDROOT
BRANCH   5   7
ATOM      7  O3  NAG d 902       7.898 -10.397  31.978  0.00  0.00    -0.348 OA
BRANCH   7   8
ATOM      8  C1  GCD d 901       8.806  -9.333  32.175  0.00  0.00     0.298 C 
ATOM      9  C2  GCD d 901       9.632  -9.058  30.956  0.00  0.00     0.206 C 
ATOM     10  C3  GCD d 901      10.565  -7.856  31.339  0.00  0.00     0.177 C 
ATOM     11  C4  GCD d 901       9.980  -6.733  32.219  0.00  0.00     0.051 C 
ATOM     12  C5  GCD d 901       8.702  -6.823  32.642  0.00  0.00     0.144 C 
ATOM     13  O5  GCD d 901       7.955  -8.113  32.433  0.00  0.00    -0.311 OA
BRANCH   9  14
ATOM     14  O2  GCD d 901      10.425 -10.225  30.565  0.00  0.00    -0.388 OA
ATOM     15  H   GCD d 901      11.329 -10.130  30.905  0.00  0.00     0.210 HD
ENDBRANCH   9  14
BRANCH  10  16
ATOM     16  O3  GCD d 901      11.340  -7.543  30.196  0.00  0.00    -0.389 OA
ATOM     17  H   GCD d 901      10.751  -7.307  29.462  0.00  0.00     0.210 HD
ENDBRANCH  10  16
BRANCH  12  18
ATOM     18  C6  GCD d 901       8.021  -5.788  33.502  0.00  0.00     0.200 C 
ATOM     19  O6B GCD d 901       8.677  -4.683  33.507  0.00  0.00    -0.645 OA
BRANCH  18  20
ATOM     20  O6A GCD d 901       7.088  -6.212  34.284  0.00  0.00    -0.771 OA
ATOM     21  H   GCD d 901       6.708  -7.057  34.146  0.00  0.00     0.167 HD
ENDBRANCH  18  20
ENDBRANCH  12  18
ENDBRANCH   7   8
ENDBRANCH   5   7
BRANCH   1  22
ATOM     22  O4  NAG d 902       9.096 -12.615  30.474  0.00  0.00    -0.390 OA
ATOM     23  H   NAG d 902       9.377 -12.531  31.398  0.00  0.00     0.210 HD
ENDBRANCH   1  22
BRANCH   6  24
ATOM     24  N2  NAG d 902       5.777  -8.947  30.871  0.00  0.00    -0.349 N 
ATOM     25  C7  NAG d 902       4.578  -8.573  31.559  0.00  0.00     0.214 C 
ATOM     26  O7  NAG d 902       3.660  -9.378  31.879  0.00  0.00    -0.274 OA
ATOM     27  C8  NAG d 902       4.541  -7.099  31.908  0.00  0.00     0.117 C 
ATOM     28  H   NAG d 902       6.456  -8.275  30.633  0.00  0.00     0.163 HD
ENDBRANCH   6  24
BRANCH   4  29
ATOM     29  C6  NAG d 902       7.410 -14.070  28.658  0.00  0.00     0.198 C 
BRANCH  29  30
ATOM     30  O6  NAG d 902       8.537 -14.347  27.784  0.00  0.00    -0.398 OA
ATOM     31  H   NAG d 902       8.344 -15.130  27.245  0.00  0.00     0.209 HD
ENDBRANCH  29  30
ENDBRANCH   4  29
BRANCH   3  32
ATOM     32  O1  NAG d 902       4.129 -10.426  28.947  0.00  0.00    -0.369 OA
ATOM     33  H   NAG d 902       3.589 -11.197  29.184  0.00  0.00     0.212 HD
ENDBRANCH   3  32
TORSDOF 11
ENDMDL
MODEL 68
REMARK VINA RESULT:      -6.2      2.071      6.191
REMARK  11 active torsions:
REMARK  status: ('A' for Active; 'I' for Inactive)
REMARK    1  A    between atoms: C4_1  and  O4_9 
REMARK    2  A    between atoms: O6_3  and  C6_15 
REMARK    3  A    between atoms: C1_4  and  O1_21 
REMARK    4  A    between atoms: O2_6  and  C2_13 
REMARK       I    between atoms: C7_7  and  N2_10 
REMARK    5  A    between atoms: O3_8  and  C1_12 
REMARK    6  A    between atoms: O3_8  and  C3_16 
REMARK    7  A    between atoms: N2_10  and  C2_20 
REMARK    8  A    between atoms: C5_11  and  C6_15 
REMARK    9  A    between atoms: C5_18  and  C6_25 
REMARK   10  A    between atoms: O3_22  and  C3_24 
REMARK   11  A    between atoms: O6A_23  and  C6_25 
ROOT
ATOM      1  C4  NAG d 902       4.239 -11.102  31.482  0.00  0.00     0.180 C 
ATOM      2  O5  NAG d 902       4.110 -13.401  32.394  0.00  0.00    -0.349 OA
ATOM      3  C1  NAG d 902       5.599 -13.512  32.493  0.00  0.00     0.282 C 
ATOM      4  C5  NAG d 902       3.607 -11.987  32.542  0.00  0.00     0.179 C 
ATOM      5  C3  NAG d 902       5.784 -11.192  31.600  0.00  0.00     0.183 C 
ATOM      6  C2  NAG d 902       6.249 -12.641  31.410  0.00  0.00     0.171 C 
ENDROOT
BRANCH   5   7
ATOM      7  O3  NAG d 902       6.430 -10.374  30.595  0.00  0.00    -0.348 OA
BRANCH   7   8
ATOM      8  C1  GCD d 901       6.941  -9.100  30.931  0.00  0.00     0.298 C 
ATOM      9  C2  GCD d 901       8.403  -9.141  31.251  0.00  0.00     0.206 C 
ATOM     10  C3  GCD d 901       8.805  -7.662  31.586  0.00  0.00     0.177 C 
ATOM     11  C4  GCD d 901       8.166  -6.529  30.758  0.00  0.00     0.051 C 
ATOM     12  C5  GCD d 901       7.277  -6.838  29.791  0.00  0.00     0.144 C 
ATOM     13  O5  GCD d 901       6.769  -8.253  29.693  0.00  0.00    -0.311 OA
BRANCH   9  14
ATOM     14  O2  GCD d 901       8.685 -10.023  32.385  0.00  0.00    -0.388 OA
ATOM     15  H   GCD d 901       7.882 -10.132  32.918  0.00  0.00     0.210 HD
ENDBRANCH   9  14
BRANCH  10  16
ATOM     16  O3  GCD d 901      10.194  -7.654  31.861  0.00  0.00    -0.389 OA
ATOM     17  H   GCD d 901      10.410  -6.888  32.415  0.00  0.00     0.210 HD
ENDBRANCH  10  16
BRANCH  12  18
ATOM     18  C6  GCD d 901       6.591  -5.820  28.915  0.00  0.00     0.200 C 
ATOM     19  O6B GCD d 901       5.315  -5.971  28.939  0.00  0.00    -0.645 OA
BRANCH  18  20
ATOM     20  O6A GCD d 901       7.342  -5.161  28.100  0.00  0.00    -0.771 OA
ATOM     21  H   GCD d 901       8.268  -5.124  28.241  0.00  0.00     0.167 HD
ENDBRANCH  18  20
ENDBRANCH  12  18
ENDBRANCH   7   8
ENDBRANCH   5   7
BRANCH   1  22
ATOM     22  O4  NAG d 902       3.764  -9.746  31.649  0.00  0.00    -0.390 OA
ATOM     23  H   NAG d 902       2.950  -9.623  31.138  0.00  0.00     0.210 HD
ENDBRANCH   1  22
BRANCH   6  24
ATOM     24  N2  NAG d 902       7.767 -12.672  31.463  0.00  0.00    -0.349 N 
ATOM     25  C7  NAG d 902       8.480 -12.816  30.230  0.00  0.00     0.214 C 
ATOM     26  O7  NAG d 902       7.933 -12.936  29.100  0.00  0.00    -0.274 OA
ATOM     27  C8  NAG d 902       9.984 -12.764  30.416  0.00  0.00     0.117 C 
ATOM     28  H   NAG d 902       8.246 -12.596  32.321  0.00  0.00     0.163 HD
ENDBRANCH   6  24
BRANCH   4  29
ATOM     29  C6  NAG d 902       2.082 -11.938  32.439  0.00  0.00     0.198 C 
BRANCH  29  30
ATOM     30  O6  NAG d 902       1.595 -11.347  31.204  0.00  0.00    -0.398 OA
ATOM     31  H   NAG d 902       2.288 -11.398  30.526  0.00  0.00     0.209 HD
ENDBRANCH  29  30
ENDBRANCH   4  29
BRANCH   3  32
ATOM     32  O1  NAG d 902       6.029 -14.861  32.355  0.00  0.00    -0.369 OA
ATOM     33  H   NAG d 902       5.724 -15.378  33.118  0.00  0.00     0.212 HD
ENDBRANCH   3  32
TORSDOF 11
ENDMDL
MODEL 69
REMARK VINA RESULT:      -6.2      2.595      3.437
REMARK  11 active torsions:
REMARK  status: ('A' for Active; 'I' for Inactive)
REMARK    1  A    between atoms: C4_1  and  O4_9 
REMARK    2  A    between atoms: O6_3  and  C6_15 
REMARK    3  A    between atoms: C1_4  and  O1_21 
REMARK    4  A    between atoms: O2_6  and  C2_13 
REMARK       I    between atoms: C7_7  and  N2_10 
REMARK    5  A    between atoms: O3_8  and  C1_12 
REMARK    6  A    between atoms: O3_8  and  C3_16 
REMARK    7  A    between atoms: N2_10  and  C2_20 
REMARK    8  A    between atoms: C5_11  and  C6_15 
REMARK    9  A    between atoms: C5_18  and  C6_25 
REMARK   10  A    between atoms: O3_22  and  C3_24 
REMARK   11  A    between atoms: O6A_23  and  C6_25 
ROOT
ATOM      1  C4  NAG d 902       7.824  -8.763  31.466  0.00  0.00     0.180 C 
ATOM      2  O5  NAG d 902      10.075  -9.651  31.993  0.00  0.00    -0.349 OA
ATOM      3  C1  NAG d 902       9.967 -10.717  30.949  0.00  0.00     0.282 C 
ATOM      4  C5  NAG d 902       9.288  -8.408  31.660  0.00  0.00     0.179 C 
ATOM      5  C3  NAG d 902       7.706  -9.848  30.363  0.00  0.00     0.183 C 
ATOM      6  C2  NAG d 902       8.494 -11.101  30.762  0.00  0.00     0.171 C 
ENDROOT
BRANCH   5   7
ATOM      7  O3  NAG d 902       6.323 -10.229  30.156  0.00  0.00    -0.348 OA
BRANCH   7   8
ATOM      8  C1  GCD d 901       5.569  -9.641  29.116  0.00  0.00     0.298 C 
ATOM      9  C2  GCD d 901       4.803 -10.657  28.327  0.00  0.00     0.206 C 
ATOM     10  C3  GCD d 901       4.021  -9.844  27.236  0.00  0.00     0.177 C 
ATOM     11  C4  GCD d 901       3.427  -8.478  27.634  0.00  0.00     0.051 C 
ATOM     12  C5  GCD d 901       3.608  -8.019  28.890  0.00  0.00     0.144 C 
ATOM     13  O5  GCD d 901       4.565  -8.743  29.799  0.00  0.00    -0.311 OA
BRANCH   9  14
ATOM     14  O2  GCD d 901       5.690 -11.640  27.703  0.00  0.00    -0.388 OA
ATOM     15  H   GCD d 901       5.477 -11.714  26.759  0.00  0.00     0.210 HD
ENDBRANCH   9  14
BRANCH  10  16
ATOM     16  O3  GCD d 901       3.254 -10.770  26.488  0.00  0.00    -0.389 OA
ATOM     17  H   GCD d 901       3.333 -11.651  26.886  0.00  0.00     0.210 HD
ENDBRANCH  10  16
BRANCH  12  18
ATOM     18  C6  GCD d 901       3.072  -6.703  29.395  0.00  0.00     0.200 C 
ATOM     19  O6B GCD d 901       3.612  -5.713  28.778  0.00  0.00    -0.645 OA
BRANCH  18  20
ATOM     20  O6A GCD d 901       2.399  -6.738  30.494  0.00  0.00    -0.771 OA
ATOM     21  H   GCD d 901       2.616  -6.156  31.195  0.00  0.00     0.167 HD
ENDBRANCH  18  20
ENDBRANCH  12  18
ENDBRANCH   7   8
ENDBRANCH   5   7
BRANCH   1  22
ATOM     22  O4  NAG d 902       7.086  -7.566  31.126  0.00  0.00    -0.390 OA
ATOM     23  H   NAG d 902       7.088  -7.446  30.164  0.00  0.00     0.210 HD
ENDBRANCH   1  22
BRANCH   6  24
ATOM     24  N2  NAG d 902       8.294 -12.159  29.691  0.00  0.00    -0.349 N 
ATOM     25  C7  NAG d 902       7.601 -13.359  30.051  0.00  0.00     0.214 C 
ATOM     26  O7  NAG d 902       7.158 -13.607  31.207  0.00  0.00    -0.274 OA
ATOM     27  C8  NAG d 902       7.410 -14.299  28.877  0.00  0.00     0.117 C 
ATOM     28  H   NAG d 902       8.631 -12.024  28.775  0.00  0.00     0.163 HD
ENDBRANCH   6  24
BRANCH   4  29
ATOM     29  C6  NAG d 902       9.442  -7.355  32.757  0.00  0.00     0.198 C 
BRANCH  29  30
ATOM     30  O6  NAG d 902       8.362  -7.357  33.729  0.00  0.00    -0.398 OA
ATOM     31  H   NAG d 902       7.532  -7.599  33.290  0.00  0.00     0.209 HD
ENDBRANCH  29  30
ENDBRANCH   4  29
BRANCH   3  32
ATOM     32  O1  NAG d 902      10.729 -11.866  31.300  0.00  0.00    -0.369 OA
ATOM     33  H   NAG d 902      10.465 -12.171  32.183  0.00  0.00     0.212 HD
ENDBRANCH   3  32
TORSDOF 11
ENDMDL
MODEL 70
REMARK VINA RESULT:      -6.2      2.196      6.847
REMARK  11 active torsions:
REMARK  status: ('A' for Active; 'I' for Inactive)
REMARK    1  A    between atoms: C4_1  and  O4_9 
REMARK    2  A    between atoms: O6_3  and  C6_15 
REMARK    3  A    between atoms: C1_4  and  O1_21 
REMARK    4  A    between atoms: O2_6  and  C2_13 
REMARK       I    between atoms: C7_7  and  N2_10 
REMARK    5  A    between atoms: O3_8  and  C1_12 
REMARK    6  A    between atoms: O3_8  and  C3_16 
REMARK    7  A    between atoms: N2_10  and  C2_20 
REMARK    8  A    between atoms: C5_11  and  C6_15 
REMARK    9  A    between atoms: C5_18  and  C6_25 
REMARK   10  A    between atoms: O3_22  and  C3_24 
REMARK   11  A    between atoms: O6A_23  and  C6_25 
ROOT
ATOM      1  C4  NAG d 902       2.578 -11.511  28.997  0.00  0.00     0.180 C 
ATOM      2  O5  NAG d 902       2.867 -10.505  26.753  0.00  0.00    -0.349 OA
ATOM      3  C1  NAG d 902       4.220  -9.970  27.099  0.00  0.00     0.282 C 
ATOM      4  C5  NAG d 902       2.515 -11.766  27.501  0.00  0.00     0.179 C 
ATOM      5  C3  NAG d 902       3.990 -10.984  29.364  0.00  0.00     0.183 C 
ATOM      6  C2  NAG d 902       4.288  -9.686  28.605  0.00  0.00     0.171 C 
ENDROOT
BRANCH   5   7
ATOM      7  O3  NAG d 902       4.090 -10.712  30.783  0.00  0.00    -0.348 OA
BRANCH   7   8
ATOM      8  C1  GCD d 901       5.086 -11.341  31.563  0.00  0.00     0.298 C 
ATOM      9  C2  GCD d 901       4.766 -12.777  31.842  0.00  0.00     0.206 C 
ATOM     10  C3  GCD d 901       5.964 -13.320  32.697  0.00  0.00     0.177 C 
ATOM     11  C4  GCD d 901       7.386 -12.837  32.345  0.00  0.00     0.051 C 
ATOM     12  C5  GCD d 901       7.554 -11.959  31.333  0.00  0.00     0.144 C 
ATOM     13  O5  GCD d 901       6.341 -11.308  30.724  0.00  0.00    -0.311 OA
BRANCH   9  14
ATOM     14  O2  GCD d 901       3.504 -12.919  32.572  0.00  0.00    -0.388 OA
ATOM     15  H   GCD d 901       2.784 -13.080  31.943  0.00  0.00     0.210 HD
ENDBRANCH   9  14
BRANCH  10  16
ATOM     16  O3  GCD d 901       5.715 -14.690  32.952  0.00  0.00    -0.389 OA
ATOM     17  H   GCD d 901       6.417 -15.226  32.553  0.00  0.00     0.210 HD
ENDBRANCH  10  16
BRANCH  12  18
ATOM     18  C6  GCD d 901       8.893 -11.420  30.895  0.00  0.00     0.200 C 
ATOM     19  O6B GCD d 901       9.839 -11.859  31.645  0.00  0.00    -0.645 OA
BRANCH  18  20
ATOM     20  O6A GCD d 901       8.873 -10.438  30.060  0.00  0.00    -0.771 OA
ATOM     21  H   GCD d 901       9.422 -10.457  29.301  0.00  0.00     0.167 HD
ENDBRANCH  18  20
ENDBRANCH  12  18
ENDBRANCH   7   8
ENDBRANCH   5   7
BRANCH   1  22
ATOM     22  O4  NAG d 902       2.259 -12.735  29.701  0.00  0.00    -0.390 OA
ATOM     23  H   NAG d 902       1.706 -13.298  29.138  0.00  0.00     0.210 HD
ENDBRANCH   1  22
BRANCH   6  24
ATOM     24  N2  NAG d 902       5.646  -9.168  29.045  0.00  0.00    -0.349 N 
ATOM     25  C7  NAG d 902       5.839  -7.751  29.106  0.00  0.00     0.214 C 
ATOM     26  O7  NAG d 902       4.961  -6.898  28.800  0.00  0.00    -0.274 OA
ATOM     27  C8  NAG d 902       7.213  -7.370  29.623  0.00  0.00     0.117 C 
ATOM     28  H   NAG d 902       6.372  -9.790  29.283  0.00  0.00     0.163 HD
ENDBRANCH   6  24
BRANCH   4  29
ATOM     29  C6  NAG d 902       1.127 -12.267  27.102  0.00  0.00     0.198 C 
BRANCH  29  30
ATOM     30  O6  NAG d 902       0.951 -12.432  25.669  0.00  0.00    -0.398 OA
ATOM     31  H   NAG d 902       0.043 -12.720  25.486  0.00  0.00     0.209 HD
ENDBRANCH  29  30
ENDBRANCH   4  29
BRANCH   3  32
ATOM     32  O1  NAG d 902       4.513  -8.785  26.367  0.00  0.00    -0.369 OA
ATOM     33  H   NAG d 902       4.263  -8.010  26.893  0.00  0.00     0.212 HD
ENDBRANCH   3  32
TORSDOF 11
ENDMDL
MODEL 71
REMARK VINA RESULT:      -6.2      2.917      5.084
REMARK  11 active torsions:
REMARK  status: ('A' for Active; 'I' for Inactive)
REMARK    1  A    between atoms: C4_1  and  O4_9 
REMARK    2  A    between atoms: O6_3  and  C6_15 
REMARK    3  A    between atoms: C1_4  and  O1_21 
REMARK    4  A    between atoms: O2_6  and  C2_13 
REMARK       I    between atoms: C7_7  and  N2_10 
REMARK    5  A    between atoms: O3_8  and  C1_12 
REMARK    6  A    between atoms: O3_8  and  C3_16 
REMARK    7  A    between atoms: N2_10  and  C2_20 
REMARK    8  A    between atoms: C5_11  and  C6_15 
REMARK    9  A    between atoms: C5_18  and  C6_25 
REMARK   10  A    between atoms: O3_22  and  C3_24 
REMARK   11  A    between atoms: O6A_23  and  C6_25 
ROOT
ATOM      1  C4  NAG d 902       5.846  -9.860  30.776  0.00  0.00     0.180 C 
ATOM      2  O5  NAG d 902       7.255  -8.160  29.655  0.00  0.00    -0.349 OA
ATOM      3  C1  NAG d 902       6.085  -7.257  29.418  0.00  0.00     0.282 C 
ATOM      4  C5  NAG d 902       7.105  -9.019  30.885  0.00  0.00     0.179 C 
ATOM      5  C3  NAG d 902       4.627  -8.925  30.560  0.00  0.00     0.183 C 
ATOM      6  C2  NAG d 902       4.810  -8.099  29.281  0.00  0.00     0.171 C 
ENDROOT
BRANCH   5   7
ATOM      7  O3  NAG d 902       3.403  -9.690  30.434  0.00  0.00    -0.348 OA
BRANCH   7   8
ATOM      8  C1  GCD d 901       2.553  -9.866  31.549  0.00  0.00     0.298 C 
ATOM      9  C2  GCD d 901       1.144  -9.448  31.261  0.00  0.00     0.206 C 
ATOM     10  C3  GCD d 901       0.344  -9.718  32.583  0.00  0.00     0.177 C 
ATOM     11  C4  GCD d 901       0.688 -10.983  33.396  0.00  0.00     0.051 C 
ATOM     12  C5  GCD d 901       1.666 -11.803  32.959  0.00  0.00     0.144 C 
ATOM     13  O5  GCD d 901       2.541 -11.352  31.820  0.00  0.00    -0.311 OA
BRANCH   9  14
ATOM     14  O2  GCD d 901       1.064  -8.035  30.887  0.00  0.00    -0.388 OA
ATOM     15  H   GCD d 901       1.957  -7.657  30.857  0.00  0.00     0.210 HD
ENDBRANCH   9  14
BRANCH  10  16
ATOM     16  O3  GCD d 901      -1.006  -9.367  32.339  0.00  0.00    -0.389 OA
ATOM     17  H   GCD d 901      -1.278  -9.712  31.474  0.00  0.00     0.210 HD
ENDBRANCH  10  16
BRANCH  12  18
ATOM     18  C6  GCD d 901       2.088 -13.067  33.665  0.00  0.00     0.200 C 
ATOM     19  O6B GCD d 901       3.361 -13.229  33.610  0.00  0.00    -0.645 OA
BRANCH  18  20
ATOM     20  O6A GCD d 901       1.150 -13.900  33.965  0.00  0.00    -0.771 OA
ATOM     21  H   GCD d 901       0.303 -13.584  34.210  0.00  0.00     0.167 HD
ENDBRANCH  18  20
ENDBRANCH  12  18
ENDBRANCH   7   8
ENDBRANCH   5   7
BRANCH   1  22
ATOM     22  O4  NAG d 902       5.705 -10.662  31.972  0.00  0.00    -0.390 OA
ATOM     23  H   NAG d 902       6.388 -11.350  31.984  0.00  0.00     0.210 HD
ENDBRANCH   1  22
BRANCH   6  24
ATOM     24  N2  NAG d 902       3.566  -7.252  29.071  0.00  0.00    -0.349 N 
ATOM     25  C7  NAG d 902       2.858  -7.393  27.834  0.00  0.00     0.214 C 
ATOM     26  O7  NAG d 902       3.206  -8.162  26.897  0.00  0.00    -0.274 OA
ATOM     27  C8  NAG d 902       1.603  -6.544  27.781  0.00  0.00     0.117 C 
ATOM     28  H   NAG d 902       3.257  -6.625  29.764  0.00  0.00     0.163 HD
ENDBRANCH   6  24
BRANCH   4  29
ATOM     29  C6  NAG d 902       8.330  -9.913  31.078  0.00  0.00     0.198 C 
BRANCH  29  30
ATOM     30  O6  NAG d 902       8.408 -10.529  32.392  0.00  0.00    -0.398 OA
ATOM     31  H   NAG d 902       9.307 -10.432  32.742  0.00  0.00     0.209 HD
ENDBRANCH  29  30
ENDBRANCH   4  29
BRANCH   3  32
ATOM     32  O1  NAG d 902       6.271  -6.463  28.252  0.00  0.00    -0.369 OA
ATOM     33  H   NAG d 902       6.003  -5.549  28.438  0.00  0.00     0.212 HD
ENDBRANCH   3  32
TORSDOF 11
ENDMDL
MODEL 72
REMARK VINA RESULT:      -6.2      2.747      4.621
REMARK  11 active torsions:
REMARK  status: ('A' for Active; 'I' for Inactive)
REMARK    1  A    between atoms: C4_1  and  O4_9 
REMARK    2  A    between atoms: O6_3  and  C6_15 
REMARK    3  A    between atoms: C1_4  and  O1_21 
REMARK    4  A    between atoms: O2_6  and  C2_13 
REMARK       I    between atoms: C7_7  and  N2_10 
REMARK    5  A    between atoms: O3_8  and  C1_12 
REMARK    6  A    between atoms: O3_8  and  C3_16 
REMARK    7  A    between atoms: N2_10  and  C2_20 
REMARK    8  A    between atoms: C5_11  and  C6_15 
REMARK    9  A    between atoms: C5_18  and  C6_25 
REMARK   10  A    between atoms: O3_22  and  C3_24 
REMARK   11  A    between atoms: O6A_23  and  C6_25 
ROOT
ATOM      1  C4  NAG d 902       3.848  -8.053  31.760  0.00  0.00     0.180 C 
ATOM      2  O5  NAG d 902       5.646  -6.841  32.954  0.00  0.00    -0.349 OA
ATOM      3  C1  NAG d 902       6.715  -7.489  32.132  0.00  0.00     0.282 C 
ATOM      4  C5  NAG d 902       4.337  -6.692  32.221  0.00  0.00     0.179 C 
ATOM      5  C3  NAG d 902       4.942  -8.717  30.882  0.00  0.00     0.183 C 
ATOM      6  C2  NAG d 902       6.241  -8.877  31.681  0.00  0.00     0.171 C 
ENDROOT
BRANCH   5   7
ATOM      7  O3  NAG d 902       4.522 -10.029  30.433  0.00  0.00    -0.348 OA
BRANCH   7   8
ATOM      8  C1  GCD d 901       4.113 -10.229  29.095  0.00  0.00     0.298 C 
ATOM      9  C2  GCD d 901       4.714 -11.463  28.497  0.00  0.00     0.206 C 
ATOM     10  C3  GCD d 901       4.155 -11.539  27.033  0.00  0.00     0.177 C 
ATOM     11  C4  GCD d 901       2.689 -11.126  26.793  0.00  0.00     0.051 C 
ATOM     12  C5  GCD d 901       1.943 -10.701  27.834  0.00  0.00     0.144 C 
ATOM     13  O5  GCD d 901       2.618 -10.431  29.152  0.00  0.00    -0.311 OA
BRANCH   9  14
ATOM     14  O2  GCD d 901       6.177 -11.404  28.489  0.00  0.00    -0.388 OA
ATOM     15  H   GCD d 901       6.467 -10.640  27.968  0.00  0.00     0.210 HD
ENDBRANCH   9  14
BRANCH  10  16
ATOM     16  O3  GCD d 901       4.674 -12.717  26.444  0.00  0.00    -0.389 OA
ATOM     17  H   GCD d 901       4.041 -13.442  26.558  0.00  0.00     0.210 HD
ENDBRANCH  10  16
BRANCH  12  18
ATOM     18  C6  GCD d 901       0.500 -10.275  27.722  0.00  0.00     0.200 C 
ATOM     19  O6B GCD d 901       0.286  -9.185  28.368  0.00  0.00    -0.645 OA
BRANCH  18  20
ATOM     20  O6A GCD d 901      -0.325 -11.151  27.260  0.00  0.00    -0.771 OA
ATOM     21  H   GCD d 901      -1.214 -11.160  27.556  0.00  0.00     0.167 HD
ENDBRANCH  18  20
ENDBRANCH  12  18
ENDBRANCH   7   8
ENDBRANCH   5   7
BRANCH   1  22
ATOM     22  O4  NAG d 902       2.603  -7.892  31.040  0.00  0.00    -0.390 OA
ATOM     23  H   NAG d 902       1.968  -8.561  31.338  0.00  0.00     0.210 HD
ENDBRANCH   1  22
BRANCH   6  24
ATOM     24  N2  NAG d 902       7.259  -9.592  30.810  0.00  0.00    -0.349 N 
ATOM     25  C7  NAG d 902       8.140 -10.531  31.437  0.00  0.00     0.214 C 
ATOM     26  O7  NAG d 902       8.141 -10.793  32.671  0.00  0.00    -0.274 OA
ATOM     27  C8  NAG d 902       9.058 -11.221  30.447  0.00  0.00     0.117 C 
ATOM     28  H   NAG d 902       7.311  -9.415  29.842  0.00  0.00     0.163 HD
ENDBRANCH   6  24
BRANCH   4  29
ATOM     29  C6  NAG d 902       3.290  -6.019  33.107  0.00  0.00     0.198 C 
BRANCH  29  30
ATOM     30  O6  NAG d 902       2.288  -6.932  33.631  0.00  0.00    -0.398 OA
ATOM     31  H   NAG d 902       2.164  -6.766  34.579  0.00  0.00     0.209 HD
ENDBRANCH  29  30
ENDBRANCH   4  29
BRANCH   3  32
ATOM     32  O1  NAG d 902       7.932  -7.604  32.860  0.00  0.00    -0.369 OA
ATOM     33  H   NAG d 902       7.813  -8.229  33.592  0.00  0.00     0.212 HD
ENDBRANCH   3  32
TORSDOF 11
ENDMDL
MODEL 73
REMARK VINA RESULT:      -6.2      2.573      4.803
REMARK  11 active torsions:
REMARK  status: ('A' for Active; 'I' for Inactive)
REMARK    1  A    between atoms: C4_1  and  O4_9 
REMARK    2  A    between atoms: O6_3  and  C6_15 
REMARK    3  A    between atoms: C1_4  and  O1_21 
REMARK    4  A    between atoms: O2_6  and  C2_13 
REMARK       I    between atoms: C7_7  and  N2_10 
REMARK    5  A    between atoms: O3_8  and  C1_12 
REMARK    6  A    between atoms: O3_8  and  C3_16 
REMARK    7  A    between atoms: N2_10  and  C2_20 
REMARK    8  A    between atoms: C5_11  and  C6_15 
REMARK    9  A    between atoms: C5_18  and  C6_25 
REMARK   10  A    between atoms: O3_22  and  C3_24 
REMARK   11  A    between atoms: O6A_23  and  C6_25 
ROOT
ATOM      1  C4  NAG d 902       5.703 -11.468  31.426  0.00  0.00     0.180 C 
ATOM      2  O5  NAG d 902       7.628 -12.980  31.797  0.00  0.00    -0.349 OA
ATOM      3  C1  NAG d 902       8.617 -11.887  31.537  0.00  0.00     0.282 C 
ATOM      4  C5  NAG d 902       6.325 -12.481  32.369  0.00  0.00     0.179 C 
ATOM      5  C3  NAG d 902       6.714 -10.317  31.176  0.00  0.00     0.183 C 
ATOM      6  C2  NAG d 902       8.007 -10.869  30.564  0.00  0.00     0.171 C 
ENDROOT
BRANCH   5   7
ATOM      7  O3  NAG d 902       6.165  -9.333  30.266  0.00  0.00    -0.348 OA
BRANCH   7   8
ATOM      8  C1  GCD d 901       5.665  -8.106  30.757  0.00  0.00     0.298 C 
ATOM      9  C2  GCD d 901       5.597  -7.054  29.694  0.00  0.00     0.206 C 
ATOM     10  C3  GCD d 901       5.017  -5.777  30.397  0.00  0.00     0.177 C 
ATOM     11  C4  GCD d 901       3.907  -5.969  31.451  0.00  0.00     0.051 C 
ATOM     12  C5  GCD d 901       3.484  -7.216  31.745  0.00  0.00     0.144 C 
ATOM     13  O5  GCD d 901       4.252  -8.393  31.205  0.00  0.00    -0.311 OA
BRANCH   9  14
ATOM     14  O2  GCD d 901       6.916  -6.776  29.122  0.00  0.00    -0.388 OA
ATOM     15  H   GCD d 901       7.557  -7.423  29.457  0.00  0.00     0.210 HD
ENDBRANCH   9  14
BRANCH  10  16
ATOM     16  O3  GCD d 901       4.904  -4.767  29.412  0.00  0.00    -0.389 OA
ATOM     17  H   GCD d 901       3.982  -4.706  29.116  0.00  0.00     0.210 HD
ENDBRANCH  10  16
BRANCH  12  18
ATOM     18  C6  GCD d 901       2.405  -7.527  32.753  0.00  0.00     0.200 C 
ATOM     19  O6B GCD d 901       2.572  -8.693  33.267  0.00  0.00    -0.645 OA
BRANCH  18  20
ATOM     20  O6A GCD d 901       1.377  -6.750  32.755  0.00  0.00    -0.771 OA
ATOM     21  H   GCD d 901       1.363  -5.992  33.307  0.00  0.00     0.167 HD
ENDBRANCH  18  20
ENDBRANCH  12  18
ENDBRANCH   7   8
ENDBRANCH   5   7
BRANCH   1  22
ATOM     22  O4  NAG d 902       4.465 -10.983  31.997  0.00  0.00    -0.390 OA
ATOM     23  H   NAG d 902       4.390 -10.029  31.846  0.00  0.00     0.210 HD
ENDBRANCH   1  22
BRANCH   6  24
ATOM     24  N2  NAG d 902       8.938  -9.704  30.272  0.00  0.00    -0.349 N 
ATOM     25  C7  NAG d 902       9.406  -8.923  31.378  0.00  0.00     0.214 C 
ATOM     26  O7  NAG d 902       9.082  -9.125  32.581  0.00  0.00    -0.274 OA
ATOM     27  C8  NAG d 902      10.378  -7.839  30.957  0.00  0.00     0.117 C 
ATOM     28  H   NAG d 902       9.212  -9.494  29.350  0.00  0.00     0.163 HD
ENDBRANCH   6  24
BRANCH   4  29
ATOM     29  C6  NAG d 902       5.361 -13.641  32.620  0.00  0.00     0.198 C 
BRANCH  29  30
ATOM     30  O6  NAG d 902       4.219 -13.289  33.445  0.00  0.00    -0.398 OA
ATOM     31  H   NAG d 902       4.194 -13.864  34.226  0.00  0.00     0.209 HD
ENDBRANCH  29  30
ENDBRANCH   4  29
BRANCH   3  32
ATOM     32  O1  NAG d 902       9.831 -12.401  31.004  0.00  0.00    -0.369 OA
ATOM     33  H   NAG d 902       9.754 -12.481  30.040  0.00  0.00     0.212 HD
ENDBRANCH   3  32
TORSDOF 11
ENDMDL
MODEL 74
REMARK VINA RESULT:      -6.2      3.556      5.666
REMARK  11 active torsions:
REMARK  status: ('A' for Active; 'I' for Inactive)
REMARK    1  A    between atoms: C4_1  and  O4_9 
REMARK    2  A    between atoms: O6_3  and  C6_15 
REMARK    3  A    between atoms: C1_4  and  O1_21 
REMARK    4  A    between atoms: O2_6  and  C2_13 
REMARK       I    between atoms: C7_7  and  N2_10 
REMARK    5  A    between atoms: O3_8  and  C1_12 
REMARK    6  A    between atoms: O3_8  and  C3_16 
REMARK    7  A    between atoms: N2_10  and  C2_20 
REMARK    8  A    between atoms: C5_11  and  C6_15 
REMARK    9  A    between atoms: C5_18  and  C6_25 
REMARK   10  A    between atoms: O3_22  and  C3_24 
REMARK   11  A    between atoms: O6A_23  and  C6_25 
ROOT
ATOM      1  C4  NAG d 902       4.570  -8.549  29.476  0.00  0.00     0.180 C 
ATOM      2  O5  NAG d 902       3.518  -7.309  27.609  0.00  0.00    -0.349 OA
ATOM      3  C1  NAG d 902       2.536  -8.408  27.349  0.00  0.00     0.282 C 
ATOM      4  C5  NAG d 902       3.956  -7.228  29.050  0.00  0.00     0.179 C 
ATOM      5  C3  NAG d 902       3.544  -9.689  29.236  0.00  0.00     0.183 C 
ATOM      6  C2  NAG d 902       3.156  -9.752  27.754  0.00  0.00     0.171 C 
ENDROOT
BRANCH   5   7
ATOM      7  O3  NAG d 902       4.096 -10.973  29.615  0.00  0.00    -0.348 OA
BRANCH   7   8
ATOM      8  C1  GCD d 901       3.594 -11.662  30.742  0.00  0.00     0.298 C 
ATOM      9  C2  GCD d 901       4.667 -11.987  31.734  0.00  0.00     0.206 C 
ATOM     10  C3  GCD d 901       3.944 -12.730  32.912  0.00  0.00     0.177 C 
ATOM     11  C4  GCD d 901       2.544 -12.239  33.331  0.00  0.00     0.051 C 
ATOM     12  C5  GCD d 901       1.980 -11.206  32.670  0.00  0.00     0.144 C 
ATOM     13  O5  GCD d 901       2.632 -10.707  31.407  0.00  0.00    -0.311 OA
BRANCH   9  14
ATOM     14  O2  GCD d 901       5.707 -12.834  31.149  0.00  0.00    -0.388 OA
ATOM     15  H   GCD d 901       6.541 -12.699  31.627  0.00  0.00     0.210 HD
ENDBRANCH   9  14
BRANCH  10  16
ATOM     16  O3  GCD d 901       4.924 -13.024  33.890  0.00  0.00    -0.389 OA
ATOM     17  H   GCD d 901       4.732 -12.525  34.700  0.00  0.00     0.210 HD
ENDBRANCH  10  16
BRANCH  12  18
ATOM     18  C6  GCD d 901       0.621 -10.637  32.991  0.00  0.00     0.200 C 
ATOM     19  O6B GCD d 901       0.541  -9.402  32.647  0.00  0.00    -0.645 OA
BRANCH  18  20
ATOM     20  O6A GCD d 901      -0.129 -11.341  33.768  0.00  0.00    -0.771 OA
ATOM     21  H   GCD d 901      -1.047 -11.158  33.826  0.00  0.00     0.167 HD
ENDBRANCH  18  20
ENDBRANCH  12  18
ENDBRANCH   7   8
ENDBRANCH   5   7
BRANCH   1  22
ATOM     22  O4  NAG d 902       4.965  -8.464  30.866  0.00  0.00    -0.390 OA
ATOM     23  H   NAG d 902       5.279  -9.330  31.167  0.00  0.00     0.210 HD
ENDBRANCH   1  22
BRANCH   6  24
ATOM     24  N2  NAG d 902       2.207 -10.921  27.552  0.00  0.00    -0.349 N 
ATOM     25  C7  NAG d 902       2.684 -12.056  26.820  0.00  0.00     0.214 C 
ATOM     26  O7  NAG d 902       3.837 -12.145  26.314  0.00  0.00    -0.274 OA
ATOM     27  C8  NAG d 902       1.665 -13.176  26.750  0.00  0.00     0.117 C 
ATOM     28  H   NAG d 902       1.292 -10.899  27.915  0.00  0.00     0.163 HD
ENDBRANCH   6  24
BRANCH   4  29
ATOM     29  C6  NAG d 902       4.950  -6.085  29.253  0.00  0.00     0.198 C 
BRANCH  29  30
ATOM     30  O6  NAG d 902       6.270  -6.350  28.707  0.00  0.00    -0.398 OA
ATOM     31  H   NAG d 902       6.946  -6.035  29.327  0.00  0.00     0.209 HD
ENDBRANCH  29  30
ENDBRANCH   4  29
BRANCH   3  32
ATOM     32  O1  NAG d 902       2.147  -8.444  25.982  0.00  0.00    -0.369 OA
ATOM     33  H   NAG d 902       1.457  -7.780  25.824  0.00  0.00     0.212 HD
ENDBRANCH   3  32
TORSDOF 11
ENDMDL
MODEL 75
REMARK VINA RESULT:      -6.1      3.363      5.909
REMARK  11 active torsions:
REMARK  status: ('A' for Active; 'I' for Inactive)
REMARK    1  A    between atoms: C4_1  and  O4_9 
REMARK    2  A    between atoms: O6_3  and  C6_15 
REMARK    3  A    between atoms: C1_4  and  O1_21 
REMARK    4  A    between atoms: O2_6  and  C2_13 
REMARK       I    between atoms: C7_7  and  N2_10 
REMARK    5  A    between atoms: O3_8  and  C1_12 
REMARK    6  A    between atoms: O3_8  and  C3_16 
REMARK    7  A    between atoms: N2_10  and  C2_20 
REMARK    8  A    between atoms: C5_11  and  C6_15 
REMARK    9  A    between atoms: C5_18  and  C6_25 
REMARK   10  A    between atoms: O3_22  and  C3_24 
REMARK   11  A    between atoms: O6A_23  and  C6_25 
ROOT
ATOM      1  C4  NAG d 902       5.488 -11.493  30.454  0.00  0.00     0.180 C 
ATOM      2  O5  NAG d 902       6.295 -12.524  28.352  0.00  0.00    -0.349 OA
ATOM      3  C1  NAG d 902       5.282 -11.790  27.530  0.00  0.00     0.282 C 
ATOM      4  C5  NAG d 902       6.708 -11.778  29.595  0.00  0.00     0.179 C 
ATOM      5  C3  NAG d 902       4.447 -10.707  29.614  0.00  0.00     0.183 C 
ATOM      6  C2  NAG d 902       4.035 -11.519  28.381  0.00  0.00     0.171 C 
ENDROOT
BRANCH   5   7
ATOM      7  O3  NAG d 902       3.258 -10.427  30.392  0.00  0.00    -0.348 OA
BRANCH   7   8
ATOM      8  C1  GCD d 901       2.941  -9.101  30.762  0.00  0.00     0.298 C 
ATOM      9  C2  GCD d 901       1.596  -8.998  31.412  0.00  0.00     0.206 C 
ATOM     10  C3  GCD d 901       1.411  -7.481  31.765  0.00  0.00     0.177 C 
ATOM     11  C4  GCD d 901       2.640  -6.695  32.266  0.00  0.00     0.051 C 
ATOM     12  C5  GCD d 901       3.829  -7.325  32.370  0.00  0.00     0.144 C 
ATOM     13  O5  GCD d 901       3.975  -8.706  31.788  0.00  0.00    -0.311 OA
BRANCH   9  14
ATOM     14  O2  GCD d 901       0.528  -9.456  30.522  0.00  0.00    -0.388 OA
ATOM     15  H   GCD d 901       0.851 -10.194  29.981  0.00  0.00     0.210 HD
ENDBRANCH   9  14
BRANCH  10  16
ATOM     16  O3  GCD d 901       0.161  -7.348  32.416  0.00  0.00    -0.389 OA
ATOM     17  H   GCD d 901      -0.204  -8.229  32.597  0.00  0.00     0.210 HD
ENDBRANCH  10  16
BRANCH  12  18
ATOM     18  C6  GCD d 901       5.097  -6.664  32.849  0.00  0.00     0.200 C 
ATOM     19  O6B GCD d 901       6.082  -7.489  32.845  0.00  0.00    -0.645 OA
BRANCH  18  20
ATOM     20  O6A GCD d 901       4.968  -5.517  33.424  0.00  0.00    -0.771 OA
ATOM     21  H   GCD d 901       5.194  -5.418  34.328  0.00  0.00     0.167 HD
ENDBRANCH  18  20
ENDBRANCH  12  18
ENDBRANCH   7   8
ENDBRANCH   5   7
BRANCH   1  22
ATOM     22  O4  NAG d 902       5.897 -10.759  31.632  0.00  0.00    -0.390 OA
ATOM     23  H   NAG d 902       5.146 -10.250  31.972  0.00  0.00     0.210 HD
ENDBRANCH   1  22
BRANCH   6  24
ATOM     24  N2  NAG d 902       2.966 -10.745  27.628  0.00  0.00    -0.349 N 
ATOM     25  C7  NAG d 902       1.997 -11.489  26.882  0.00  0.00     0.214 C 
ATOM     26  O7  NAG d 902       1.978 -12.747  26.793  0.00  0.00    -0.274 OA
ATOM     27  C8  NAG d 902       0.951 -10.602  26.235  0.00  0.00     0.117 C 
ATOM     28  H   NAG d 902       2.942  -9.761  27.652  0.00  0.00     0.163 HD
ENDBRANCH   6  24
BRANCH   4  29
ATOM     29  C6  NAG d 902       7.746 -12.572  30.388  0.00  0.00     0.198 C 
BRANCH  29  30
ATOM     30  O6  NAG d 902       7.176 -13.414  31.426  0.00  0.00    -0.398 OA
ATOM     31  H   NAG d 902       6.208 -13.346  31.401  0.00  0.00     0.209 HD
ENDBRANCH  29  30
ENDBRANCH   4  29
BRANCH   3  32
ATOM     32  O1  NAG d 902       4.927 -12.527  26.366  0.00  0.00    -0.369 OA
ATOM     33  H   NAG d 902       4.060 -12.228  26.047  0.00  0.00     0.212 HD
ENDBRANCH   3  32
TORSDOF 11
ENDMDL
MODEL 76
REMARK VINA RESULT:      -6.1      2.522      6.113
REMARK  11 active torsions:
REMARK  status: ('A' for Active; 'I' for Inactive)
REMARK    1  A    between atoms: C4_1  and  O4_9 
REMARK    2  A    between atoms: O6_3  and  C6_15 
REMARK    3  A    between atoms: C1_4  and  O1_21 
REMARK    4  A    between atoms: O2_6  and  C2_13 
REMARK       I    between atoms: C7_7  and  N2_10 
REMARK    5  A    between atoms: O3_8  and  C1_12 
REMARK    6  A    between atoms: O3_8  and  C3_16 
REMARK    7  A    between atoms: N2_10  and  C2_20 
REMARK    8  A    between atoms: C5_11  and  C6_15 
REMARK    9  A    between atoms: C5_18  and  C6_25 
REMARK   10  A    between atoms: O3_22  and  C3_24 
REMARK   11  A    between atoms: O6A_23  and  C6_25 
ROOT
ATOM      1  C4  NAG d 902       3.134 -11.670  31.577  0.00  0.00     0.180 C 
ATOM      2  O5  NAG d 902       4.485 -13.600  32.341  0.00  0.00    -0.349 OA
ATOM      3  C1  NAG d 902       5.740 -12.785  32.380  0.00  0.00     0.282 C 
ATOM      4  C5  NAG d 902       3.240 -12.790  32.598  0.00  0.00     0.179 C 
ATOM      5  C3  NAG d 902       4.421 -10.805  31.635  0.00  0.00     0.183 C 
ATOM      6  C2  NAG d 902       5.654 -11.665  31.335  0.00  0.00     0.171 C 
ENDROOT
BRANCH   5   7
ATOM      7  O3  NAG d 902       4.369  -9.732  30.664  0.00  0.00    -0.348 OA
BRANCH   7   8
ATOM      8  C1  GCD d 901       4.472  -8.386  31.080  0.00  0.00     0.298 C 
ATOM      9  C2  GCD d 901       3.298  -7.955  31.903  0.00  0.00     0.206 C 
ATOM     10  C3  GCD d 901       3.577  -6.459  32.287  0.00  0.00     0.177 C 
ATOM     11  C4  GCD d 901       5.025  -6.053  32.626  0.00  0.00     0.051 C 
ATOM     12  C5  GCD d 901       6.003  -6.982  32.568  0.00  0.00     0.144 C 
ATOM     13  O5  GCD d 901       5.695  -8.326  31.964  0.00  0.00    -0.311 OA
BRANCH   9  14
ATOM     14  O2  GCD d 901       2.043  -8.072  31.159  0.00  0.00    -0.388 OA
ATOM     15  H   GCD d 901       1.301  -7.830  31.736  0.00  0.00     0.210 HD
ENDBRANCH   9  14
BRANCH  10  16
ATOM     16  O3  GCD d 901       2.501  -6.024  33.098  0.00  0.00    -0.389 OA
ATOM     17  H   GCD d 901       1.752  -5.774  32.535  0.00  0.00     0.210 HD
ENDBRANCH  10  16
BRANCH  12  18
ATOM     18  C6  GCD d 901       7.452  -6.705  32.881  0.00  0.00     0.200 C 
ATOM     19  O6B GCD d 901       8.183  -6.813  31.829  0.00  0.00    -0.645 OA
BRANCH  18  20
ATOM     20  O6A GCD d 901       7.777  -6.675  34.128  0.00  0.00    -0.771 OA
ATOM     21  H   GCD d 901       8.122  -5.889  34.504  0.00  0.00     0.167 HD
ENDBRANCH  18  20
ENDBRANCH  12  18
ENDBRANCH   7   8
ENDBRANCH   5   7
BRANCH   1  22
ATOM     22  O4  NAG d 902       1.946 -10.889  31.850  0.00  0.00    -0.390 OA
ATOM     23  H   NAG d 902       2.134  -9.951  31.695  0.00  0.00     0.210 HD
ENDBRANCH   1  22
BRANCH   6  24
ATOM     24  N2  NAG d 902       6.880 -10.768  31.333  0.00  0.00    -0.349 N 
ATOM     25  C7  NAG d 902       7.925 -11.059  30.397  0.00  0.00     0.214 C 
ATOM     26  O7  NAG d 902       7.905 -12.023  29.583  0.00  0.00    -0.274 OA
ATOM     27  C8  NAG d 902       9.056 -10.051  30.453  0.00  0.00     0.117 C 
ATOM     28  H   NAG d 902       6.954 -10.010  31.956  0.00  0.00     0.163 HD
ENDBRANCH   6  24
BRANCH   4  29
ATOM     29  C6  NAG d 902       1.995 -13.675  32.552  0.00  0.00     0.198 C 
BRANCH  29  30
ATOM     30  O6  NAG d 902       1.248 -13.705  33.798  0.00  0.00    -0.398 OA
ATOM     31  H   NAG d 902       1.266 -12.825  34.207  0.00  0.00     0.209 HD
ENDBRANCH  29  30
ENDBRANCH   4  29
BRANCH   3  32
ATOM     32  O1  NAG d 902       6.888 -13.590  32.138  0.00  0.00    -0.369 OA
ATOM     33  H   NAG d 902       7.231 -13.405  31.249  0.00  0.00     0.212 HD
ENDBRANCH   3  32
TORSDOF 11
ENDMDL
MODEL 77
REMARK VINA RESULT:      -6.1      2.752      6.938
REMARK  11 active torsions:
REMARK  status: ('A' for Active; 'I' for Inactive)
REMARK    1  A    between atoms: C4_1  and  O4_9 
REMARK    2  A    between atoms: O6_3  and  C6_15 
REMARK    3  A    between atoms: C1_4  and  O1_21 
REMARK    4  A    between atoms: O2_6  and  C2_13 
REMARK       I    between atoms: C7_7  and  N2_10 
REMARK    5  A    between atoms: O3_8  and  C1_12 
REMARK    6  A    between atoms: O3_8  and  C3_16 
REMARK    7  A    between atoms: N2_10  and  C2_20 
REMARK    8  A    between atoms: C5_11  and  C6_15 
REMARK    9  A    between atoms: C5_18  and  C6_25 
REMARK   10  A    between atoms: O3_22  and  C3_24 
REMARK   11  A    between atoms: O6A_23  and  C6_25 
ROOT
ATOM      1  C4  NAG d 902       8.027  -9.994  31.600  0.00  0.00     0.180 C 
ATOM      2  O5  NAG d 902       6.680 -11.362  30.037  0.00  0.00    -0.349 OA
ATOM      3  C1  NAG d 902       5.774 -10.215  29.715  0.00  0.00     0.282 C 
ATOM      4  C5  NAG d 902       8.077 -10.933  30.408  0.00  0.00     0.179 C 
ATOM      5  C3  NAG d 902       7.112  -8.788  31.260  0.00  0.00     0.183 C 
ATOM      6  C2  NAG d 902       5.697  -9.272  30.923  0.00  0.00     0.171 C 
ENDROOT
BRANCH   5   7
ATOM      7  O3  NAG d 902       7.023  -7.872  32.379  0.00  0.00    -0.348 OA
BRANCH   7   8
ATOM      8  C1  GCD d 901       7.614  -6.591  32.303  0.00  0.00     0.298 C 
ATOM      9  C2  GCD d 901       8.009  -6.067  33.648  0.00  0.00     0.206 C 
ATOM     10  C3  GCD d 901       8.651  -4.660  33.383  0.00  0.00     0.177 C 
ATOM     11  C4  GCD d 901       9.534  -4.488  32.130  0.00  0.00     0.051 C 
ATOM     12  C5  GCD d 901       9.714  -5.537  31.300  0.00  0.00     0.144 C 
ATOM     13  O5  GCD d 901       8.877  -6.773  31.495  0.00  0.00    -0.311 OA
BRANCH   9  14
ATOM     14  O2  GCD d 901       6.857  -5.949  34.544  0.00  0.00    -0.388 OA
ATOM     15  H   GCD d 901       6.074  -5.695  34.031  0.00  0.00     0.210 HD
ENDBRANCH   9  14
BRANCH  10  16
ATOM     16  O3  GCD d 901       9.072  -4.145  34.634  0.00  0.00    -0.389 OA
ATOM     17  H   GCD d 901       9.077  -3.176  34.599  0.00  0.00     0.210 HD
ENDBRANCH  10  16
BRANCH  12  18
ATOM     18  C6  GCD d 901      10.556  -5.491  30.050  0.00  0.00     0.200 C 
ATOM     19  O6B GCD d 901      11.391  -6.467  30.015  0.00  0.00    -0.645 OA
BRANCH  18  20
ATOM     20  O6A GCD d 901      10.519  -4.396  29.370  0.00  0.00    -0.771 OA
ATOM     21  H   GCD d 901      10.114  -4.383  28.525  0.00  0.00     0.167 HD
ENDBRANCH  18  20
ENDBRANCH  12  18
ENDBRANCH   7   8
ENDBRANCH   5   7
BRANCH   1  22
ATOM     22  O4  NAG d 902       9.372  -9.574  31.931  0.00  0.00    -0.390 OA
ATOM     23  H   NAG d 902      10.005 -10.233  31.608  0.00  0.00     0.210 HD
ENDBRANCH   1  22
BRANCH   6  24
ATOM     24  N2  NAG d 902       4.819  -8.058  30.666  0.00  0.00    -0.349 N 
ATOM     25  C7  NAG d 902       3.743  -7.802  31.575  0.00  0.00     0.214 C 
ATOM     26  O7  NAG d 902       3.461  -8.527  32.568  0.00  0.00    -0.274 OA
ATOM     27  C8  NAG d 902       2.990  -6.528  31.244  0.00  0.00     0.117 C 
ATOM     28  H   NAG d 902       4.987  -7.466  29.897  0.00  0.00     0.163 HD
ENDBRANCH   6  24
BRANCH   4  29
ATOM     29  C6  NAG d 902       8.955 -12.145  30.718  0.00  0.00     0.198 C 
BRANCH  29  30
ATOM     30  O6  NAG d 902       9.191 -12.352  32.137  0.00  0.00    -0.398 OA
ATOM     31  H   NAG d 902       9.711 -13.162  32.263  0.00  0.00     0.209 HD
ENDBRANCH  29  30
ENDBRANCH   4  29
BRANCH   3  32
ATOM     32  O1  NAG d 902       4.470 -10.665  29.366  0.00  0.00    -0.369 OA
ATOM     33  H   NAG d 902       4.421 -10.798  28.406  0.00  0.00     0.212 HD
ENDBRANCH   3  32
TORSDOF 11
ENDMDL
MODEL 78
REMARK VINA RESULT:      -6.1      2.570      6.766
REMARK  11 active torsions:
REMARK  status: ('A' for Active; 'I' for Inactive)
REMARK    1  A    between atoms: C4_1  and  O4_9 
REMARK    2  A    between atoms: O6_3  and  C6_15 
REMARK    3  A    between atoms: C1_4  and  O1_21 
REMARK    4  A    between atoms: O2_6  and  C2_13 
REMARK       I    between atoms: C7_7  and  N2_10 
REMARK    5  A    between atoms: O3_8  and  C1_12 
REMARK    6  A    between atoms: O3_8  and  C3_16 
REMARK    7  A    between atoms: N2_10  and  C2_20 
REMARK    8  A    between atoms: C5_11  and  C6_15 
REMARK    9  A    between atoms: C5_18  and  C6_25 
REMARK   10  A    between atoms: O3_22  and  C3_24 
REMARK   11  A    between atoms: O6A_23  and  C6_25 
ROOT
ATOM      1  C4  NAG d 902       7.022 -10.789  30.661  0.00  0.00     0.180 C 
ATOM      2  O5  NAG d 902       4.870 -11.517  29.676  0.00  0.00    -0.349 OA
ATOM      3  C1  NAG d 902       4.235 -10.184  29.920  0.00  0.00     0.282 C 
ATOM      4  C5  NAG d 902       6.360 -11.437  29.458  0.00  0.00     0.179 C 
ATOM      5  C3  NAG d 902       6.387  -9.393  30.900  0.00  0.00     0.183 C 
ATOM      6  C2  NAG d 902       4.880  -9.529  31.149  0.00  0.00     0.171 C 
ENDROOT
BRANCH   5   7
ATOM      7  O3  NAG d 902       6.980  -8.743  32.051  0.00  0.00    -0.348 OA
BRANCH   7   8
ATOM      8  C1  GCD d 901       7.809  -7.612  31.884  0.00  0.00     0.298 C 
ATOM      9  C2  GCD d 901       9.246  -7.913  32.176  0.00  0.00     0.206 C 
ATOM     10  C3  GCD d 901      10.019  -6.569  31.933  0.00  0.00     0.177 C 
ATOM     11  C4  GCD d 901       9.577  -5.679  30.753  0.00  0.00     0.051 C 
ATOM     12  C5  GCD d 901       8.542  -6.071  29.982  0.00  0.00     0.144 C 
ATOM     13  O5  GCD d 901       7.708  -7.245  30.423  0.00  0.00    -0.311 OA
BRANCH   9  14
ATOM     14  O2  GCD d 901       9.434  -8.376  33.552  0.00  0.00    -0.388 OA
ATOM     15  H   GCD d 901      10.113  -7.835  33.985  0.00  0.00     0.210 HD
ENDBRANCH   9  14
BRANCH  10  16
ATOM     16  O3  GCD d 901      11.392  -6.823  32.166  0.00  0.00    -0.389 OA
ATOM     17  H   GCD d 901      11.927  -6.285  31.562  0.00  0.00     0.210 HD
ENDBRANCH  10  16
BRANCH  12  18
ATOM     18  C6  GCD d 901       8.023  -5.288  28.801  0.00  0.00     0.200 C 
ATOM     19  O6B GCD d 901       6.839  -5.666  28.477  0.00  0.00    -0.645 OA
BRANCH  18  20
ATOM     20  O6A GCD d 901       8.888  -4.590  28.148  0.00  0.00    -0.771 OA
ATOM     21  H   GCD d 901       8.707  -4.322  27.269  0.00  0.00     0.167 HD
ENDBRANCH  18  20
ENDBRANCH  12  18
ENDBRANCH   7   8
ENDBRANCH   5   7
BRANCH   1  22
ATOM     22  O4  NAG d 902       8.448 -10.700  30.428  0.00  0.00    -0.390 OA
ATOM     23  H   NAG d 902       8.920 -10.816  31.267  0.00  0.00     0.210 HD
ENDBRANCH   1  22
BRANCH   6  24
ATOM     24  N2  NAG d 902       4.313  -8.152  31.446  0.00  0.00    -0.349 N 
ATOM     25  C7  NAG d 902       3.244  -8.055  32.394  0.00  0.00     0.214 C 
ATOM     26  O7  NAG d 902       2.726  -9.041  32.988  0.00  0.00    -0.274 OA
ATOM     27  C8  NAG d 902       2.818  -6.623  32.649  0.00  0.00     0.117 C 
ATOM     28  H   NAG d 902       4.671  -7.350  31.001  0.00  0.00     0.163 HD
ENDBRANCH   6  24
BRANCH   4  29
ATOM     29  C6  NAG d 902       6.949 -12.826  29.208  0.00  0.00     0.198 C 
BRANCH  29  30
ATOM     30  O6  NAG d 902       7.241 -13.098  27.811  0.00  0.00    -0.398 OA
ATOM     31  H   NAG d 902       8.187 -12.964  27.647  0.00  0.00     0.209 HD
ENDBRANCH  29  30
ENDBRANCH   4  29
BRANCH   3  32
ATOM     32  O1  NAG d 902       2.831 -10.305  30.114  0.00  0.00    -0.369 OA
ATOM     33  H   NAG d 902       2.366  -9.782  29.442  0.00  0.00     0.212 HD
ENDBRANCH   3  32
TORSDOF 11
ENDMDL
MODEL 79
REMARK VINA RESULT:      -6.1      2.290      6.212
REMARK  11 active torsions:
REMARK  status: ('A' for Active; 'I' for Inactive)
REMARK    1  A    between atoms: C4_1  and  O4_9 
REMARK    2  A    between atoms: O6_3  and  C6_15 
REMARK    3  A    between atoms: C1_4  and  O1_21 
REMARK    4  A    between atoms: O2_6  and  C2_13 
REMARK       I    between atoms: C7_7  and  N2_10 
REMARK    5  A    between atoms: O3_8  and  C1_12 
REMARK    6  A    between atoms: O3_8  and  C3_16 
REMARK    7  A    between atoms: N2_10  and  C2_20 
REMARK    8  A    between atoms: C5_11  and  C6_15 
REMARK    9  A    between atoms: C5_18  and  C6_25 
REMARK   10  A    between atoms: O3_22  and  C3_24 
REMARK   11  A    between atoms: O6A_23  and  C6_25 
ROOT
ATOM      1  C4  NAG d 902       3.430  -8.960  31.237  0.00  0.00     0.180 C 
ATOM      2  O5  NAG d 902       1.613 -10.573  31.713  0.00  0.00    -0.349 OA
ATOM      3  C1  NAG d 902       2.580 -11.695  31.925  0.00  0.00     0.282 C 
ATOM      4  C5  NAG d 902       2.182  -9.221  32.061  0.00  0.00     0.179 C 
ATOM      5  C3  NAG d 902       4.448 -10.106  31.477  0.00  0.00     0.183 C 
ATOM      6  C2  NAG d 902       3.835 -11.454  31.078  0.00  0.00     0.171 C 
ENDROOT
BRANCH   5   7
ATOM      7  O3  NAG d 902       5.650  -9.905  30.696  0.00  0.00    -0.348 OA
BRANCH   7   8
ATOM      8  C1  GCD d 901       6.893  -9.702  31.337  0.00  0.00     0.298 C 
ATOM      9  C2  GCD d 901       8.050 -10.068  30.460  0.00  0.00     0.206 C 
ATOM     10  C3  GCD d 901       9.336  -9.775  31.311  0.00  0.00     0.177 C 
ATOM     11  C4  GCD d 901       9.339  -8.526  32.216  0.00  0.00     0.051 C 
ATOM     12  C5  GCD d 901       8.243  -7.740  32.262  0.00  0.00     0.144 C 
ATOM     13  O5  GCD d 901       6.975  -8.218  31.605  0.00  0.00    -0.311 OA
BRANCH   9  14
ATOM     14  O2  GCD d 901       8.004 -11.476  30.062  0.00  0.00    -0.388 OA
ATOM     15  H   GCD d 901       8.407 -11.577  29.185  0.00  0.00     0.210 HD
ENDBRANCH   9  14
BRANCH  10  16
ATOM     16  O3  GCD d 901      10.456 -10.076  30.500  0.00  0.00    -0.389 OA
ATOM     17  H   GCD d 901      11.252 -10.122  31.053  0.00  0.00     0.210 HD
ENDBRANCH  10  16
BRANCH  12  18
ATOM     18  C6  GCD d 901       8.130  -6.494  33.104  0.00  0.00     0.200 C 
ATOM     19  O6B GCD d 901       8.878  -5.555  32.648  0.00  0.00    -0.645 OA
BRANCH  18  20
ATOM     20  O6A GCD d 901       7.553  -6.624  34.250  0.00  0.00    -0.771 OA
ATOM     21  H   GCD d 901       8.014  -6.402  35.035  0.00  0.00     0.167 HD
ENDBRANCH  18  20
ENDBRANCH  12  18
ENDBRANCH   7   8
ENDBRANCH   5   7
BRANCH   1  22
ATOM     22  O4  NAG d 902       3.976  -7.669  31.598  0.00  0.00    -0.390 OA
ATOM     23  H   NAG d 902       3.349  -7.200  32.169  0.00  0.00     0.210 HD
ENDBRANCH   1  22
BRANCH   6  24
ATOM     24  N2  NAG d 902       4.886 -12.536  31.262  0.00  0.00    -0.349 N 
ATOM     25  C7  NAG d 902       5.103 -13.044  32.583  0.00  0.00     0.214 C 
ATOM     26  O7  NAG d 902       4.491 -12.642  33.611  0.00  0.00    -0.274 OA
ATOM     27  C8  NAG d 902       6.125 -14.163  32.617  0.00  0.00     0.117 C 
ATOM     28  H   NAG d 902       5.402 -12.877  30.496  0.00  0.00     0.163 HD
ENDBRANCH   6  24
BRANCH   4  29
ATOM     29  C6  NAG d 902       1.148  -8.119  31.830  0.00  0.00     0.198 C 
BRANCH  29  30
ATOM     30  O6  NAG d 902       1.266  -7.000  32.750  0.00  0.00    -0.398 OA
ATOM     31  H   NAG d 902       1.437  -7.334  33.645  0.00  0.00     0.209 HD
ENDBRANCH  29  30
ENDBRANCH   4  29
BRANCH   3  32
ATOM     32  O1  NAG d 902       2.000 -12.950  31.590  0.00  0.00    -0.369 OA
ATOM     33  H   NAG d 902       2.651 -13.655  31.734  0.00  0.00     0.212 HD
ENDBRANCH   3  32
TORSDOF 11
ENDMDL
MODEL 80
REMARK VINA RESULT:      -6.1      3.262      5.020
REMARK  11 active torsions:
REMARK  status: ('A' for Active; 'I' for Inactive)
REMARK    1  A    between atoms: C4_1  and  O4_9 
REMARK    2  A    between atoms: O6_3  and  C6_15 
REMARK    3  A    between atoms: C1_4  and  O1_21 
REMARK    4  A    between atoms: O2_6  and  C2_13 
REMARK       I    between atoms: C7_7  and  N2_10 
REMARK    5  A    between atoms: O3_8  and  C1_12 
REMARK    6  A    between atoms: O3_8  and  C3_16 
REMARK    7  A    between atoms: N2_10  and  C2_20 
REMARK    8  A    between atoms: C5_11  and  C6_15 
REMARK    9  A    between atoms: C5_18  and  C6_25 
REMARK   10  A    between atoms: O3_22  and  C3_24 
REMARK   11  A    between atoms: O6A_23  and  C6_25 
ROOT
ATOM      1  C4  NAG d 902       6.489 -12.232  28.536  0.00  0.00     0.180 C 
ATOM      2  O5  NAG d 902       7.071 -12.910  30.845  0.00  0.00    -0.349 OA
ATOM      3  C1  NAG d 902       5.876 -12.216  31.418  0.00  0.00     0.282 C 
ATOM      4  C5  NAG d 902       6.858 -13.399  29.434  0.00  0.00     0.179 C 
ATOM      5  C3  NAG d 902       5.231 -11.526  29.110  0.00  0.00     0.183 C 
ATOM      6  C2  NAG d 902       5.507 -11.020  30.531  0.00  0.00     0.171 C 
ENDROOT
BRANCH   5   7
ATOM      7  O3  NAG d 902       4.852 -10.394  28.291  0.00  0.00    -0.348 OA
BRANCH   7   8
ATOM      8  C1  GCD d 901       3.562 -10.327  27.717  0.00  0.00     0.298 C 
ATOM      9  C2  GCD d 901       3.100 -11.656  27.205  0.00  0.00     0.206 C 
ATOM     10  C3  GCD d 901       1.665 -11.408  26.620  0.00  0.00     0.177 C 
ATOM     11  C4  GCD d 901       0.733 -10.434  27.369  0.00  0.00     0.051 C 
ATOM     12  C5  GCD d 901       1.178  -9.818  28.483  0.00  0.00     0.144 C 
ATOM     13  O5  GCD d 901       2.637  -9.925  28.841  0.00  0.00    -0.311 OA
BRANCH   9  14
ATOM     14  O2  GCD d 901       3.995 -12.180  26.173  0.00  0.00    -0.388 OA
ATOM     15  H   GCD d 901       4.016 -11.567  25.421  0.00  0.00     0.210 HD
ENDBRANCH   9  14
BRANCH  10  16
ATOM     16  O3  GCD d 901       1.177 -12.654  26.155  0.00  0.00    -0.389 OA
ATOM     17  H   GCD d 901       0.643 -12.515  25.358  0.00  0.00     0.210 HD
ENDBRANCH  10  16
BRANCH  12  18
ATOM     18  C6  GCD d 901       0.359  -8.850  29.300  0.00  0.00     0.200 C 
ATOM     19  O6B GCD d 901       0.921  -7.696  29.355  0.00  0.00    -0.645 OA
BRANCH  18  20
ATOM     20  O6A GCD d 901      -0.587  -9.356  30.015  0.00  0.00    -0.771 OA
ATOM     21  H   GCD d 901      -1.373  -9.660  29.606  0.00  0.00     0.167 HD
ENDBRANCH  18  20
ENDBRANCH  12  18
ENDBRANCH   7   8
ENDBRANCH   5   7
BRANCH   1  22
ATOM     22  O4  NAG d 902       6.267 -12.718  27.191  0.00  0.00    -0.390 OA
ATOM     23  H   NAG d 902       7.120 -12.906  26.771  0.00  0.00     0.210 HD
ENDBRANCH   1  22
BRANCH   6  24
ATOM     24  N2  NAG d 902       4.278 -10.277  31.026  0.00  0.00    -0.349 N 
ATOM     25  C7  NAG d 902       4.464  -8.985  31.614  0.00  0.00     0.214 C 
ATOM     26  O7  NAG d 902       5.585  -8.425  31.765  0.00  0.00    -0.274 OA
ATOM     27  C8  NAG d 902       3.155  -8.326  32.003  0.00  0.00     0.117 C 
ATOM     28  H   NAG d 902       3.380 -10.673  30.946  0.00  0.00     0.163 HD
ENDBRANCH   6  24
BRANCH   4  29
ATOM     29  C6  NAG d 902       8.109 -14.103  28.908  0.00  0.00     0.198 C 
BRANCH  29  30
ATOM     30  O6  NAG d 902       7.835 -15.107  27.893  0.00  0.00    -0.398 OA
ATOM     31  H   NAG d 902       7.095 -15.664  28.182  0.00  0.00     0.209 HD
ENDBRANCH  29  30
ENDBRANCH   4  29
BRANCH   3  32
ATOM     32  O1  NAG d 902       6.118 -11.779  32.749  0.00  0.00    -0.369 OA
ATOM     33  H   NAG d 902       6.224 -12.550  33.329  0.00  0.00     0.212 HD
ENDBRANCH   3  32
TORSDOF 11
ENDMDL
MODEL 81
REMARK VINA RESULT:      -6.1      3.321      6.969
REMARK  11 active torsions:
REMARK  status: ('A' for Active; 'I' for Inactive)
REMARK    1  A    between atoms: C4_1  and  O4_9 
REMARK    2  A    between atoms: O6_3  and  C6_15 
REMARK    3  A    between atoms: C1_4  and  O1_21 
REMARK    4  A    between atoms: O2_6  and  C2_13 
REMARK       I    between atoms: C7_7  and  N2_10 
REMARK    5  A    between atoms: O3_8  and  C1_12 
REMARK    6  A    between atoms: O3_8  and  C3_16 
REMARK    7  A    between atoms: N2_10  and  C2_20 
REMARK    8  A    between atoms: C5_11  and  C6_15 
REMARK    9  A    between atoms: C5_18  and  C6_25 
REMARK   10  A    between atoms: O3_22  and  C3_24 
REMARK   11  A    between atoms: O6A_23  and  C6_25 
ROOT
ATOM      1  C4  NAG d 902       0.775  -8.669  29.979  0.00  0.00     0.180 C 
ATOM      2  O5  NAG d 902       0.226  -9.076  27.599  0.00  0.00    -0.349 OA
ATOM      3  C1  NAG d 902       1.222 -10.188  27.494  0.00  0.00     0.282 C 
ATOM      4  C5  NAG d 902      -0.346  -8.916  28.985  0.00  0.00     0.179 C 
ATOM      5  C3  NAG d 902       1.795  -9.836  29.895  0.00  0.00     0.183 C 
ATOM      6  C2  NAG d 902       2.372  -9.937  28.478  0.00  0.00     0.171 C 
ENDROOT
BRANCH   5   7
ATOM      7  O3  NAG d 902       2.893  -9.633  30.818  0.00  0.00    -0.348 OA
BRANCH   7   8
ATOM      8  C1  GCD d 901       3.236 -10.637  31.751  0.00  0.00     0.298 C 
ATOM      9  C2  GCD d 901       2.193 -11.708  31.842  0.00  0.00     0.206 C 
ATOM     10  C3  GCD d 901       2.732 -12.735  32.900  0.00  0.00     0.177 C 
ATOM     11  C4  GCD d 901       4.244 -13.041  32.911  0.00  0.00     0.051 C 
ATOM     12  C5  GCD d 901       5.052 -12.413  32.031  0.00  0.00     0.144 C 
ATOM     13  O5  GCD d 901       4.497 -11.274  31.217  0.00  0.00    -0.311 OA
BRANCH   9  14
ATOM     14  O2  GCD d 901       0.898 -11.168  32.259  0.00  0.00    -0.388 OA
ATOM     15  H   GCD d 901       0.939 -10.199  32.268  0.00  0.00     0.210 HD
ENDBRANCH   9  14
BRANCH  10  16
ATOM     16  O3  GCD d 901       1.786 -13.784  32.988  0.00  0.00    -0.389 OA
ATOM     17  H   GCD d 901       1.163 -13.721  32.248  0.00  0.00     0.210 HD
ENDBRANCH  10  16
BRANCH  12  18
ATOM     18  C6  GCD d 901       6.541 -12.633  31.945  0.00  0.00     0.200 C 
ATOM     19  O6B GCD d 901       7.169 -11.904  32.796  0.00  0.00    -0.645 OA
BRANCH  18  20
ATOM     20  O6A GCD d 901       6.971 -13.271  30.910  0.00  0.00    -0.771 OA
ATOM     21  H   GCD d 901       7.774 -13.015  30.502  0.00  0.00     0.167 HD
ENDBRANCH  18  20
ENDBRANCH  12  18
ENDBRANCH   7   8
ENDBRANCH   5   7
BRANCH   1  22
ATOM     22  O4  NAG d 902       0.213  -8.539  31.307  0.00  0.00    -0.390 OA
ATOM     23  H   NAG d 902       0.898  -8.228  31.918  0.00  0.00     0.210 HD
ENDBRANCH   1  22
BRANCH   6  24
ATOM     24  N2  NAG d 902       3.414 -11.042  28.458  0.00  0.00    -0.349 N 
ATOM     25  C7  NAG d 902       4.512 -10.916  27.547  0.00  0.00     0.214 C 
ATOM     26  O7  NAG d 902       4.665  -9.954  26.745  0.00  0.00    -0.274 OA
ATOM     27  C8  NAG d 902       5.511 -12.049  27.676  0.00  0.00     0.117 C 
ATOM     28  H   NAG d 902       3.336 -11.822  29.054  0.00  0.00     0.163 HD
ENDBRANCH   6  24
BRANCH   4  29
ATOM     29  C6  NAG d 902      -1.359  -7.771  29.027  0.00  0.00     0.198 C 
BRANCH  29  30
ATOM     30  O6  NAG d 902      -0.799  -6.506  29.470  0.00  0.00    -0.398 OA
ATOM     31  H   NAG d 902      -1.161  -6.279  30.341  0.00  0.00     0.209 HD
ENDBRANCH  29  30
ENDBRANCH   4  29
BRANCH   3  32
ATOM     32  O1  NAG d 902       1.730 -10.306  26.171  0.00  0.00    -0.369 OA
ATOM     33  H   NAG d 902       2.078  -9.449  25.880  0.00  0.00     0.212 HD
ENDBRANCH   3  32
TORSDOF 11
ENDMDL
MODEL 82
REMARK VINA RESULT:      -6.1      1.836      6.422
REMARK  11 active torsions:
REMARK  status: ('A' for Active; 'I' for Inactive)
REMARK    1  A    between atoms: C4_1  and  O4_9 
REMARK    2  A    between atoms: O6_3  and  C6_15 
REMARK    3  A    between atoms: C1_4  and  O1_21 
REMARK    4  A    between atoms: O2_6  and  C2_13 
REMARK       I    between atoms: C7_7  and  N2_10 
REMARK    5  A    between atoms: O3_8  and  C1_12 
REMARK    6  A    between atoms: O3_8  and  C3_16 
REMARK    7  A    between atoms: N2_10  and  C2_20 
REMARK    8  A    between atoms: C5_11  and  C6_15 
REMARK    9  A    between atoms: C5_18  and  C6_25 
REMARK   10  A    between atoms: O3_22  and  C3_24 
REMARK   11  A    between atoms: O6A_23  and  C6_25 
ROOT
ATOM      1  C4  NAG d 902       4.308 -10.537  30.708  0.00  0.00     0.180 C 
ATOM      2  O5  NAG d 902       4.742 -12.778  31.667  0.00  0.00    -0.349 OA
ATOM      3  C1  NAG d 902       6.162 -12.434  31.990  0.00  0.00     0.282 C 
ATOM      4  C5  NAG d 902       3.819 -11.586  31.690  0.00  0.00     0.179 C 
ATOM      5  C3  NAG d 902       5.771 -10.155  31.057  0.00  0.00     0.183 C 
ATOM      6  C2  NAG d 902       6.675 -11.392  30.988  0.00  0.00     0.171 C 
ENDROOT
BRANCH   5   7
ATOM      7  O3  NAG d 902       6.285  -9.166  30.133  0.00  0.00    -0.348 OA
BRANCH   7   8
ATOM      8  C1  GCD d 901       6.886  -7.981  30.615  0.00  0.00     0.298 C 
ATOM      9  C2  GCD d 901       6.696  -7.809  32.090  0.00  0.00     0.206 C 
ATOM     10  C3  GCD d 901       7.425  -6.468  32.457  0.00  0.00     0.177 C 
ATOM     11  C4  GCD d 901       8.754  -6.145  31.744  0.00  0.00     0.051 C 
ATOM     12  C5  GCD d 901       9.238  -7.006  30.825  0.00  0.00     0.144 C 
ATOM     13  O5  GCD d 901       8.365  -8.142  30.361  0.00  0.00    -0.311 OA
BRANCH   9  14
ATOM     14  O2  GCD d 901       5.279  -7.742  32.451  0.00  0.00    -0.388 OA
ATOM     15  H   GCD d 901       4.831  -7.095  31.883  0.00  0.00     0.210 HD
ENDBRANCH   9  14
BRANCH  10  16
ATOM     16  O3  GCD d 901       7.298  -6.288  33.855  0.00  0.00    -0.389 OA
ATOM     17  H   GCD d 901       6.621  -6.891  34.199  0.00  0.00     0.210 HD
ENDBRANCH  10  16
BRANCH  12  18
ATOM     18  C6  GCD d 901      10.526  -6.800  30.068  0.00  0.00     0.200 C 
ATOM     19  O6B GCD d 901      11.386  -7.709  30.357  0.00  0.00    -0.645 OA
BRANCH  18  20
ATOM     20  O6A GCD d 901      10.675  -5.659  29.486  0.00  0.00    -0.771 OA
ATOM     21  H   GCD d 901      11.529  -5.282  29.407  0.00  0.00     0.167 HD
ENDBRANCH  18  20
ENDBRANCH  12  18
ENDBRANCH   7   8
ENDBRANCH   5   7
BRANCH   1  22
ATOM     22  O4  NAG d 902       3.426  -9.391  30.757  0.00  0.00    -0.390 OA
ATOM     23  H   NAG d 902       2.740  -9.482  30.078  0.00  0.00     0.210 HD
ENDBRANCH   1  22
BRANCH   6  24
ATOM     24  N2  NAG d 902       8.105 -10.961  31.267  0.00  0.00    -0.349 N 
ATOM     25  C7  NAG d 902       9.161 -11.661  30.600  0.00  0.00     0.214 C 
ATOM     26  O7  NAG d 902       8.986 -12.626  29.806  0.00  0.00    -0.274 OA
ATOM     27  C8  NAG d 902      10.530 -11.090  30.914  0.00  0.00     0.117 C 
ATOM     28  H   NAG d 902       8.300 -10.223  31.889  0.00  0.00     0.163 HD
ENDBRANCH   6  24
BRANCH   4  29
ATOM     29  C6  NAG d 902       2.385 -12.001  31.360  0.00  0.00     0.198 C 
BRANCH  29  30
ATOM     30  O6  NAG d 902       1.373 -11.204  32.032  0.00  0.00    -0.398 OA
ATOM     31  H   NAG d 902       0.513 -11.646  31.958  0.00  0.00     0.209 HD
ENDBRANCH  29  30
ENDBRANCH   4  29
BRANCH   3  32
ATOM     32  O1  NAG d 902       6.995 -13.587  31.962  0.00  0.00    -0.369 OA
ATOM     33  H   NAG d 902       7.609 -13.524  31.214  0.00  0.00     0.212 HD
ENDBRANCH   3  32
TORSDOF 11
ENDMDL
MODEL 83
REMARK VINA RESULT:      -6.1      2.431      3.622
REMARK  11 active torsions:
REMARK  status: ('A' for Active; 'I' for Inactive)
REMARK    1  A    between atoms: C4_1  and  O4_9 
REMARK    2  A    between atoms: O6_3  and  C6_15 
REMARK    3  A    between atoms: C1_4  and  O1_21 
REMARK    4  A    between atoms: O2_6  and  C2_13 
REMARK       I    between atoms: C7_7  and  N2_10 
REMARK    5  A    between atoms: O3_8  and  C1_12 
REMARK    6  A    between atoms: O3_8  and  C3_16 
REMARK    7  A    between atoms: N2_10  and  C2_20 
REMARK    8  A    between atoms: C5_11  and  C6_15 
REMARK    9  A    between atoms: C5_18  and  C6_25 
REMARK   10  A    between atoms: O3_22  and  C3_24 
REMARK   11  A    between atoms: O6A_23  and  C6_25 
ROOT
ATOM      1  C4  NAG d 902       5.877  -8.121  30.734  0.00  0.00     0.180 C 
ATOM      2  O5  NAG d 902       8.089  -8.895  29.932  0.00  0.00    -0.349 OA
ATOM      3  C1  NAG d 902       7.692 -10.334  30.034  0.00  0.00     0.282 C 
ATOM      4  C5  NAG d 902       6.928  -7.975  29.648  0.00  0.00     0.179 C 
ATOM      5  C3  NAG d 902       5.441  -9.607  30.823  0.00  0.00     0.183 C 
ATOM      6  C2  NAG d 902       6.647 -10.497  31.146  0.00  0.00     0.171 C 
ENDROOT
BRANCH   5   7
ATOM      7  O3  NAG d 902       4.448  -9.795  31.861  0.00  0.00    -0.348 OA
BRANCH   7   8
ATOM      8  C1  GCD d 901       3.074  -9.834  31.535  0.00  0.00     0.298 C 
ATOM      9  C2  GCD d 901       2.301  -8.741  32.207  0.00  0.00     0.206 C 
ATOM     10  C3  GCD d 901       0.815  -8.921  31.734  0.00  0.00     0.177 C 
ATOM     11  C4  GCD d 901       0.564  -9.342  30.272  0.00  0.00     0.051 C 
ATOM     12  C5  GCD d 901       1.616  -9.556  29.455  0.00  0.00     0.144 C 
ATOM     13  O5  GCD d 901       3.001  -9.595  30.046  0.00  0.00    -0.311 OA
BRANCH   9  14
ATOM     14  O2  GCD d 901       2.394  -8.829  33.665  0.00  0.00    -0.388 OA
ATOM     15  H   GCD d 901       1.929  -8.077  34.065  0.00  0.00     0.210 HD
ENDBRANCH   9  14
BRANCH  10  16
ATOM     16  O3  GCD d 901       0.057  -7.880  32.323  0.00  0.00    -0.389 OA
ATOM     17  H   GCD d 901      -0.832  -7.869  31.933  0.00  0.00     0.210 HD
ENDBRANCH  10  16
BRANCH  12  18
ATOM     18  C6  GCD d 901       1.495  -9.966  28.009  0.00  0.00     0.200 C 
ATOM     19  O6B GCD d 901       2.234  -9.234  27.255  0.00  0.00    -0.645 OA
BRANCH  18  20
ATOM     20  O6A GCD d 901       0.520 -10.757  27.714  0.00  0.00    -0.771 OA
ATOM     21  H   GCD d 901      -0.345 -10.568  28.020  0.00  0.00     0.167 HD
ENDBRANCH  18  20
ENDBRANCH  12  18
ENDBRANCH   7   8
ENDBRANCH   5   7
BRANCH   1  22
ATOM     22  O4  NAG d 902       4.762  -7.248  30.436  0.00  0.00    -0.390 OA
ATOM     23  H   NAG d 902       5.093  -6.405  30.091  0.00  0.00     0.210 HD
ENDBRANCH   1  22
BRANCH   6  24
ATOM     24  N2  NAG d 902       6.165 -11.930  31.293  0.00  0.00    -0.349 N 
ATOM     25  C7  NAG d 902       6.515 -12.639  32.487  0.00  0.00     0.214 C 
ATOM     26  O7  NAG d 902       7.215 -12.160  33.421  0.00  0.00    -0.274 OA
ATOM     27  C8  NAG d 902       5.916 -14.031  32.537  0.00  0.00     0.117 C 
ATOM     28  H   NAG d 902       5.627 -12.358  30.588  0.00  0.00     0.163 HD
ENDBRANCH   6  24
BRANCH   4  29
ATOM     29  C6  NAG d 902       7.396  -6.523  29.548  0.00  0.00     0.198 C 
BRANCH  29  30
ATOM     30  O6  NAG d 902       6.700  -5.749  28.535  0.00  0.00    -0.398 OA
ATOM     31  H   NAG d 902       6.201  -5.033  28.960  0.00  0.00     0.209 HD
ENDBRANCH  29  30
ENDBRANCH   4  29
BRANCH   3  32
ATOM     32  O1  NAG d 902       8.816 -11.165  30.297  0.00  0.00    -0.369 OA
ATOM     33  H   NAG d 902       8.550 -12.096  30.237  0.00  0.00     0.212 HD
ENDBRANCH   3  32
TORSDOF 11
ENDMDL
MODEL 84
REMARK VINA RESULT:      -6.1      3.689      7.663
REMARK  11 active torsions:
REMARK  status: ('A' for Active; 'I' for Inactive)
REMARK    1  A    between atoms: C4_1  and  O4_9 
REMARK    2  A    between atoms: O6_3  and  C6_15 
REMARK    3  A    between atoms: C1_4  and  O1_21 
REMARK    4  A    between atoms: O2_6  and  C2_13 
REMARK       I    between atoms: C7_7  and  N2_10 
REMARK    5  A    between atoms: O3_8  and  C1_12 
REMARK    6  A    between atoms: O3_8  and  C3_16 
REMARK    7  A    between atoms: N2_10  and  C2_20 
REMARK    8  A    between atoms: C5_11  and  C6_15 
REMARK    9  A    between atoms: C5_18  and  C6_25 
REMARK   10  A    between atoms: O3_22  and  C3_24 
REMARK   11  A    between atoms: O6A_23  and  C6_25 
ROOT
ATOM      1  C4  NAG d 902       1.791 -10.764  32.982  0.00  0.00     0.180 C 
ATOM      2  O5  NAG d 902      -0.530 -10.347  33.736  0.00  0.00    -0.349 OA
ATOM      3  C1  NAG d 902      -0.913  -9.737  32.424  0.00  0.00     0.282 C 
ATOM      4  C5  NAG d 902       0.559 -11.383  33.617  0.00  0.00     0.179 C 
ATOM      5  C3  NAG d 902       1.405 -10.156  31.608  0.00  0.00     0.183 C 
ATOM      6  C2  NAG d 902       0.321  -9.086  31.784  0.00  0.00     0.171 C 
ENDROOT
BRANCH   5   7
ATOM      7  O3  NAG d 902       2.551  -9.538  30.972  0.00  0.00    -0.348 OA
BRANCH   7   8
ATOM      8  C1  GCD d 901       3.179 -10.162  29.870  0.00  0.00     0.298 C 
ATOM      9  C2  GCD d 901       3.347  -9.229  28.711  0.00  0.00     0.206 C 
ATOM     10  C3  GCD d 901       4.060 -10.067  27.593  0.00  0.00     0.177 C 
ATOM     11  C4  GCD d 901       5.152 -11.069  28.021  0.00  0.00     0.051 C 
ATOM     12  C5  GCD d 901       5.448 -11.205  29.331  0.00  0.00     0.144 C 
ATOM     13  O5  GCD d 901       4.558 -10.545  30.351  0.00  0.00    -0.311 OA
BRANCH   9  14
ATOM     14  O2  GCD d 901       2.059  -8.721  28.234  0.00  0.00    -0.388 OA
ATOM     15  H   GCD d 901       1.402  -9.434  28.256  0.00  0.00     0.210 HD
ENDBRANCH   9  14
BRANCH  10  16
ATOM     16  O3  GCD d 901       4.269  -9.207  26.489  0.00  0.00    -0.389 OA
ATOM     17  H   GCD d 901       4.830  -8.463  26.760  0.00  0.00     0.210 HD
ENDBRANCH  10  16
BRANCH  12  18
ATOM     18  C6  GCD d 901       6.495 -12.147  29.868  0.00  0.00     0.200 C 
ATOM     19  O6B GCD d 901       6.383 -12.291  31.140  0.00  0.00    -0.645 OA
BRANCH  18  20
ATOM     20  O6A GCD d 901       7.468 -12.441  29.074  0.00  0.00    -0.771 OA
ATOM     21  H   GCD d 901       7.644 -11.901  28.329  0.00  0.00     0.167 HD
ENDBRANCH  18  20
ENDBRANCH  12  18
ENDBRANCH   7   8
ENDBRANCH   5   7
BRANCH   1  22
ATOM     22  O4  NAG d 902       2.819 -11.774  32.855  0.00  0.00    -0.390 OA
ATOM     23  H   NAG d 902       2.713 -12.239  32.011  0.00  0.00     0.210 HD
ENDBRANCH   1  22
BRANCH   6  24
ATOM     24  N2  NAG d 902       0.024  -8.470  30.428  0.00  0.00    -0.349 N 
ATOM     25  C7  NAG d 902      -0.327  -7.083  30.381  0.00  0.00     0.214 C 
ATOM     26  O7  NAG d 902      -0.424  -6.338  31.395  0.00  0.00    -0.274 OA
ATOM     27  C8  NAG d 902      -0.532  -6.580  28.966  0.00  0.00     0.117 C 
ATOM     28  H   NAG d 902       0.071  -9.010  29.605  0.00  0.00     0.163 HD
ENDBRANCH   6  24
BRANCH   4  29
ATOM     29  C6  NAG d 902       0.901 -11.973  34.985  0.00  0.00     0.198 C 
BRANCH  29  30
ATOM     30  O6  NAG d 902       1.253 -13.382  34.946  0.00  0.00    -0.398 OA
ATOM     31  H   NAG d 902       1.798 -13.600  35.718  0.00  0.00     0.209 HD
ENDBRANCH  29  30
ENDBRANCH   4  29
BRANCH   3  32
ATOM     32  O1  NAG d 902      -1.945  -8.771  32.582  0.00  0.00    -0.369 OA
ATOM     33  H   NAG d 902      -2.744  -9.205  32.922  0.00  0.00     0.212 HD
ENDBRANCH   3  32
TORSDOF 11
ENDMDL
MODEL 85
REMARK VINA RESULT:      -6.1      5.207      8.524
REMARK  11 active torsions:
REMARK  status: ('A' for Active; 'I' for Inactive)
REMARK    1  A    between atoms: C4_1  and  O4_9 
REMARK    2  A    between atoms: O6_3  and  C6_15 
REMARK    3  A    between atoms: C1_4  and  O1_21 
REMARK    4  A    between atoms: O2_6  and  C2_13 
REMARK       I    between atoms: C7_7  and  N2_10 
REMARK    5  A    between atoms: O3_8  and  C1_12 
REMARK    6  A    between atoms: O3_8  and  C3_16 
REMARK    7  A    between atoms: N2_10  and  C2_20 
REMARK    8  A    between atoms: C5_11  and  C6_15 
REMARK    9  A    between atoms: C5_18  and  C6_25 
REMARK   10  A    between atoms: O3_22  and  C3_24 
REMARK   11  A    between atoms: O6A_23  and  C6_25 
ROOT
ATOM      1  C4  NAG d 902      -0.359  -9.603  25.608  0.00  0.00     0.180 C 
ATOM      2  O5  NAG d 902       1.118 -11.486  24.973  0.00  0.00    -0.349 OA
ATOM      3  C1  NAG d 902       1.890 -11.393  26.251  0.00  0.00     0.282 C 
ATOM      4  C5  NAG d 902      -0.315 -11.036  25.108  0.00  0.00     0.179 C 
ATOM      5  C3  NAG d 902       0.416  -9.508  26.949  0.00  0.00     0.183 C 
ATOM      6  C2  NAG d 902       1.873  -9.944  26.753  0.00  0.00     0.171 C 
ENDROOT
BRANCH   5   7
ATOM      7  O3  NAG d 902       0.413  -8.151  27.455  0.00  0.00    -0.348 OA
BRANCH   7   8
ATOM      8  C1  GCD d 901      -0.062  -7.875  28.757  0.00  0.00     0.298 C 
ATOM      9  C2  GCD d 901      -0.915  -8.982  29.296  0.00  0.00     0.206 C 
ATOM     10  C3  GCD d 901      -1.344  -8.524  30.734  0.00  0.00     0.177 C 
ATOM     11  C4  GCD d 901      -0.309  -7.774  31.597  0.00  0.00     0.051 C 
ATOM     12  C5  GCD d 901       0.916  -7.522  31.090  0.00  0.00     0.144 C 
ATOM     13  O5  GCD d 901       1.167  -7.780  29.628  0.00  0.00    -0.311 OA
BRANCH   9  14
ATOM     14  O2  GCD d 901      -2.090  -9.218  28.456  0.00  0.00    -0.388 OA
ATOM     15  H   GCD d 901      -2.430 -10.112  28.620  0.00  0.00     0.210 HD
ENDBRANCH   9  14
BRANCH  10  16
ATOM     16  O3  GCD d 901      -2.125  -9.564  31.293  0.00  0.00    -0.389 OA
ATOM     17  H   GCD d 901      -2.331 -10.218  30.606  0.00  0.00     0.210 HD
ENDBRANCH  10  16
BRANCH  12  18
ATOM     18  C6  GCD d 901       2.009  -6.802  31.839  0.00  0.00     0.200 C 
ATOM     19  O6B GCD d 901       3.038  -6.614  31.092  0.00  0.00    -0.645 OA
BRANCH  18  20
ATOM     20  O6A GCD d 901       1.879  -6.727  33.119  0.00  0.00    -0.771 OA
ATOM     21  H   GCD d 901       1.399  -6.019  33.501  0.00  0.00     0.167 HD
ENDBRANCH  18  20
ENDBRANCH  12  18
ENDBRANCH   7   8
ENDBRANCH   5   7
BRANCH   1  22
ATOM     22  O4  NAG d 902      -1.739  -9.192  25.753  0.00  0.00    -0.390 OA
ATOM     23  H   NAG d 902      -2.262  -9.552  25.020  0.00  0.00     0.210 HD
ENDBRANCH   1  22
BRANCH   6  24
ATOM     24  N2  NAG d 902       2.611  -9.769  28.070  0.00  0.00    -0.349 N 
ATOM     25  C7  NAG d 902       3.994  -9.402  28.023  0.00  0.00     0.214 C 
ATOM     26  O7  NAG d 902       4.650  -9.230  26.959  0.00  0.00    -0.274 OA
ATOM     27  C8  NAG d 902       4.591  -9.195  29.401  0.00  0.00     0.117 C 
ATOM     28  H   NAG d 902       2.151  -9.905  28.930  0.00  0.00     0.163 HD
ENDBRANCH   6  24
BRANCH   4  29
ATOM     29  C6  NAG d 902      -1.053 -11.160  23.775  0.00  0.00     0.198 C 
BRANCH  29  30
ATOM     30  O6  NAG d 902      -2.122 -12.143  23.784  0.00  0.00    -0.398 OA
ATOM     31  H   NAG d 902      -2.888 -11.782  24.258  0.00  0.00     0.209 HD
ENDBRANCH  29  30
ENDBRANCH   4  29
BRANCH   3  32
ATOM     32  O1  NAG d 902       3.232 -11.833  26.080  0.00  0.00    -0.369 OA
ATOM     33  H   NAG d 902       3.646 -11.334  25.358  0.00  0.00     0.212 HD
ENDBRANCH   3  32
TORSDOF 11
ENDMDL
MODEL 86
REMARK VINA RESULT:      -6.1      4.940      9.199
REMARK  11 active torsions:
REMARK  status: ('A' for Active; 'I' for Inactive)
REMARK    1  A    between atoms: C4_1  and  O4_9 
REMARK    2  A    between atoms: O6_3  and  C6_15 
REMARK    3  A    between atoms: C1_4  and  O1_21 
REMARK    4  A    between atoms: O2_6  and  C2_13 
REMARK       I    between atoms: C7_7  and  N2_10 
REMARK    5  A    between atoms: O3_8  and  C1_12 
REMARK    6  A    between atoms: O3_8  and  C3_16 
REMARK    7  A    between atoms: N2_10  and  C2_20 
REMARK    8  A    between atoms: C5_11  and  C6_15 
REMARK    9  A    between atoms: C5_18  and  C6_25 
REMARK   10  A    between atoms: O3_22  and  C3_24 
REMARK   11  A    between atoms: O6A_23  and  C6_25 
ROOT
ATOM      1  C4  NAG d 902      -0.037 -10.846  25.349  0.00  0.00     0.180 C 
ATOM      2  O5  NAG d 902      -1.497  -8.945  24.725  0.00  0.00    -0.349 OA
ATOM      3  C1  NAG d 902      -1.000  -8.109  25.863  0.00  0.00     0.282 C 
ATOM      4  C5  NAG d 902      -0.474  -9.931  24.219  0.00  0.00     0.179 C 
ATOM      5  C3  NAG d 902       0.507  -9.984  26.520  0.00  0.00     0.183 C 
ATOM      6  C2  NAG d 902      -0.578  -9.023  27.021  0.00  0.00     0.171 C 
ENDROOT
BRANCH   5   7
ATOM      7  O3  NAG d 902       0.921 -10.818  27.629  0.00  0.00    -0.348 OA
BRANCH   7   8
ATOM      8  C1  GCD d 901       2.284 -10.891  27.997  0.00  0.00     0.298 C 
ATOM      9  C2  GCD d 901       3.105 -11.636  26.992  0.00  0.00     0.206 C 
ATOM     10  C3  GCD d 901       4.574 -11.613  27.543  0.00  0.00     0.177 C 
ATOM     11  C4  GCD d 901       5.070 -10.327  28.235  0.00  0.00     0.051 C 
ATOM     12  C5  GCD d 901       4.231  -9.277  28.359  0.00  0.00     0.144 C 
ATOM     13  O5  GCD d 901       2.776  -9.464  28.020  0.00  0.00    -0.311 OA
BRANCH   9  14
ATOM     14  O2  GCD d 901       2.637 -13.013  26.824  0.00  0.00    -0.388 OA
ATOM     15  H   GCD d 901       2.482 -13.190  25.883  0.00  0.00     0.210 HD
ENDBRANCH   9  14
BRANCH  10  16
ATOM     16  O3  GCD d 901       5.390 -12.280  26.598  0.00  0.00    -0.389 OA
ATOM     17  H   GCD d 901       5.526 -13.198  26.880  0.00  0.00     0.210 HD
ENDBRANCH  10  16
BRANCH  12  18
ATOM     18  C6  GCD d 901       4.604  -7.970  29.011  0.00  0.00     0.200 C 
ATOM     19  O6B GCD d 901       5.186  -7.183  28.178  0.00  0.00    -0.645 OA
BRANCH  18  20
ATOM     20  O6A GCD d 901       4.543  -7.930  30.299  0.00  0.00    -0.771 OA
ATOM     21  H   GCD d 901       5.022  -8.553  30.810  0.00  0.00     0.167 HD
ENDBRANCH  18  20
ENDBRANCH  12  18
ENDBRANCH   7   8
ENDBRANCH   5   7
BRANCH   1  22
ATOM     22  O4  NAG d 902       0.959 -11.771  24.853  0.00  0.00    -0.390 OA
ATOM     23  H   NAG d 902       1.831 -11.347  24.868  0.00  0.00     0.210 HD
ENDBRANCH   1  22
BRANCH   6  24
ATOM     24  N2  NAG d 902      -0.028  -8.251  28.208  0.00  0.00    -0.349 N 
ATOM     25  C7  NAG d 902      -0.711  -8.368  29.462  0.00  0.00     0.214 C 
ATOM     26  O7  NAG d 902      -1.752  -9.057  29.644  0.00  0.00    -0.274 OA
ATOM     27  C8  NAG d 902      -0.022  -7.604  30.575  0.00  0.00     0.117 C 
ATOM     28  H   NAG d 902       0.774  -7.687  28.118  0.00  0.00     0.163 HD
ENDBRANCH   6  24
BRANCH   4  29
ATOM     29  C6  NAG d 902      -1.036 -10.749  23.056  0.00  0.00     0.198 C 
BRANCH  29  30
ATOM     30  O6  NAG d 902      -1.422 -12.101  23.421  0.00  0.00    -0.398 OA
ATOM     31  H   NAG d 902      -2.098 -12.068  24.115  0.00  0.00     0.209 HD
ENDBRANCH  29  30
ENDBRANCH   4  29
BRANCH   3  32
ATOM     32  O1  NAG d 902      -1.993  -7.191  26.305  0.00  0.00    -0.369 OA
ATOM     33  H   NAG d 902      -1.597  -6.561  26.927  0.00  0.00     0.212 HD
ENDBRANCH   3  32
TORSDOF 11
ENDMDL
MODEL 87
REMARK VINA RESULT:      -6.1      2.800      4.873
REMARK  11 active torsions:
REMARK  status: ('A' for Active; 'I' for Inactive)
REMARK    1  A    between atoms: C4_1  and  O4_9 
REMARK    2  A    between atoms: O6_3  and  C6_15 
REMARK    3  A    between atoms: C1_4  and  O1_21 
REMARK    4  A    between atoms: O2_6  and  C2_13 
REMARK       I    between atoms: C7_7  and  N2_10 
REMARK    5  A    between atoms: O3_8  and  C1_12 
REMARK    6  A    between atoms: O3_8  and  C3_16 
REMARK    7  A    between atoms: N2_10  and  C2_20 
REMARK    8  A    between atoms: C5_11  and  C6_15 
REMARK    9  A    between atoms: C5_18  and  C6_25 
REMARK   10  A    between atoms: O3_22  and  C3_24 
REMARK   11  A    between atoms: O6A_23  and  C6_25 
ROOT
ATOM      1  C4  NAG d 902       4.037  -7.776  32.110  0.00  0.00     0.180 C 
ATOM      2  O5  NAG d 902       5.602  -5.875  32.370  0.00  0.00    -0.349 OA
ATOM      3  C1  NAG d 902       6.673  -6.569  31.588  0.00  0.00     0.282 C 
ATOM      4  C5  NAG d 902       4.208  -6.275  31.957  0.00  0.00     0.179 C 
ATOM      5  C3  NAG d 902       5.127  -8.500  31.278  0.00  0.00     0.183 C 
ATOM      6  C2  NAG d 902       6.524  -8.086  31.756  0.00  0.00     0.171 C 
ENDROOT
BRANCH   5   7
ATOM      7  O3  NAG d 902       5.011  -9.938  31.409  0.00  0.00    -0.348 OA
BRANCH   7   8
ATOM      8  C1  GCD d 901       4.922 -10.755  30.259  0.00  0.00     0.298 C 
ATOM      9  C2  GCD d 901       4.572  -9.972  29.032  0.00  0.00     0.206 C 
ATOM     10  C3  GCD d 901       4.527 -11.016  27.862  0.00  0.00     0.177 C 
ATOM     11  C4  GCD d 901       5.574 -12.149  27.857  0.00  0.00     0.051 C 
ATOM     12  C5  GCD d 901       6.479 -12.216  28.856  0.00  0.00     0.144 C 
ATOM     13  O5  GCD d 901       6.306 -11.325  30.057  0.00  0.00    -0.311 OA
BRANCH   9  14
ATOM     14  O2  GCD d 901       3.282  -9.295  29.171  0.00  0.00    -0.388 OA
ATOM     15  H   GCD d 901       2.889  -9.164  28.294  0.00  0.00     0.210 HD
ENDBRANCH   9  14
BRANCH  10  16
ATOM     16  O3  GCD d 901       4.232 -10.306  26.673  0.00  0.00    -0.389 OA
ATOM     17  H   GCD d 901       4.936  -9.662  26.499  0.00  0.00     0.210 HD
ENDBRANCH  10  16
BRANCH  12  18
ATOM     18  C6  GCD d 901       7.551 -13.273  28.956  0.00  0.00     0.200 C 
ATOM     19  O6B GCD d 901       8.195 -13.177  30.063  0.00  0.00    -0.645 OA
BRANCH  18  20
ATOM     20  O6A GCD d 901       7.839 -13.906  27.871  0.00  0.00    -0.771 OA
ATOM     21  H   GCD d 901       7.503 -13.606  27.049  0.00  0.00     0.167 HD
ENDBRANCH  18  20
ENDBRANCH  12  18
ENDBRANCH   7   8
ENDBRANCH   5   7
BRANCH   1  22
ATOM     22  O4  NAG d 902       2.703  -8.148  31.691  0.00  0.00    -0.390 OA
ATOM     23  H   NAG d 902       2.087  -7.428  31.896  0.00  0.00     0.210 HD
ENDBRANCH   1  22
BRANCH   6  24
ATOM     24  N2  NAG d 902       7.558  -8.869  30.964  0.00  0.00    -0.349 N 
ATOM     25  C7  NAG d 902       8.763  -9.260  31.632  0.00  0.00     0.214 C 
ATOM     26  O7  NAG d 902       9.034  -8.984  32.833  0.00  0.00    -0.274 OA
ATOM     27  C8  NAG d 902       9.675 -10.091  30.751  0.00  0.00     0.117 C 
ATOM     28  H   NAG d 902       7.403  -9.100  30.019  0.00  0.00     0.163 HD
ENDBRANCH   6  24
BRANCH   4  29
ATOM     29  C6  NAG d 902       3.160  -5.530  32.784  0.00  0.00     0.198 C 
BRANCH  29  30
ATOM     30  O6  NAG d 902       2.431  -6.378  33.711  0.00  0.00    -0.398 OA
ATOM     31  H   NAG d 902       2.371  -5.938  34.573  0.00  0.00     0.209 HD
ENDBRANCH  29  30
ENDBRANCH   4  29
BRANCH   3  32
ATOM     32  O1  NAG d 902       7.969  -6.157  32.006  0.00  0.00    -0.369 OA
ATOM     33  H   NAG d 902       8.465  -5.826  31.240  0.00  0.00     0.212 HD
ENDBRANCH   3  32
TORSDOF 11
ENDMDL
MODEL 88
REMARK VINA RESULT:      -6.1      2.875      5.762
REMARK  11 active torsions:
REMARK  status: ('A' for Active; 'I' for Inactive)
REMARK    1  A    between atoms: C4_1  and  O4_9 
REMARK    2  A    between atoms: O6_3  and  C6_15 
REMARK    3  A    between atoms: C1_4  and  O1_21 
REMARK    4  A    between atoms: O2_6  and  C2_13 
REMARK       I    between atoms: C7_7  and  N2_10 
REMARK    5  A    between atoms: O3_8  and  C1_12 
REMARK    6  A    between atoms: O3_8  and  C3_16 
REMARK    7  A    between atoms: N2_10  and  C2_20 
REMARK    8  A    between atoms: C5_11  and  C6_15 
REMARK    9  A    between atoms: C5_18  and  C6_25 
REMARK   10  A    between atoms: O3_22  and  C3_24 
REMARK   11  A    between atoms: O6A_23  and  C6_25 
ROOT
ATOM      1  C4  NAG d 902      10.561  -6.440  32.592  0.00  0.00     0.180 C 
ATOM      2  O5  NAG d 902       8.866  -4.985  33.659  0.00  0.00    -0.349 OA
ATOM      3  C1  NAG d 902       7.735  -5.737  33.032  0.00  0.00     0.282 C 
ATOM      4  C5  NAG d 902      10.087  -5.836  33.901  0.00  0.00     0.179 C 
ATOM      5  C3  NAG d 902       9.400  -7.246  31.953  0.00  0.00     0.183 C 
ATOM      6  C2  NAG d 902       8.196  -6.332  31.695  0.00  0.00     0.171 C 
ENDROOT
BRANCH   5   7
ATOM      7  O3  NAG d 902       9.805  -7.829  30.690  0.00  0.00    -0.348 OA
BRANCH   7   8
ATOM      8  C1  GCD d 901       9.726  -9.225  30.489  0.00  0.00     0.298 C 
ATOM      9  C2  GCD d 901      10.774  -9.969  31.257  0.00  0.00     0.206 C 
ATOM     10  C3  GCD d 901      10.539 -11.486  30.934  0.00  0.00     0.177 C 
ATOM     11  C4  GCD d 901       9.085 -11.986  30.810  0.00  0.00     0.051 C 
ATOM     12  C5  GCD d 901       8.070 -11.112  30.966  0.00  0.00     0.144 C 
ATOM     13  O5  GCD d 901       8.381  -9.640  31.036  0.00  0.00    -0.311 OA
BRANCH   9  14
ATOM     14  O2  GCD d 901      12.125  -9.560  30.865  0.00  0.00    -0.388 OA
ATOM     15  H   GCD d 901      12.262  -8.629  31.101  0.00  0.00     0.210 HD
ENDBRANCH   9  14
BRANCH  10  16
ATOM     16  O3  GCD d 901      11.493 -12.228  31.672  0.00  0.00    -0.389 OA
ATOM     17  H   GCD d 901      11.617 -13.096  31.259  0.00  0.00     0.210 HD
ENDBRANCH  10  16
BRANCH  12  18
ATOM     18  C6  GCD d 901       6.611 -11.483  30.872  0.00  0.00     0.200 C 
ATOM     19  O6B GCD d 901       6.385 -12.222  29.846  0.00  0.00    -0.645 OA
BRANCH  18  20
ATOM     20  O6A GCD d 901       5.799 -10.823  31.625  0.00  0.00    -0.771 OA
ATOM     21  H   GCD d 901       4.881 -11.011  31.602  0.00  0.00     0.167 HD
ENDBRANCH  18  20
ENDBRANCH  12  18
ENDBRANCH   7   8
ENDBRANCH   5   7
BRANCH   1  22
ATOM     22  O4  NAG d 902      11.719  -7.271  32.844  0.00  0.00    -0.390 OA
ATOM     23  H   NAG d 902      11.742  -7.998  32.202  0.00  0.00     0.210 HD
ENDBRANCH   1  22
BRANCH   6  24
ATOM     24  N2  NAG d 902       7.111  -7.143  31.008  0.00  0.00    -0.349 N 
ATOM     25  C7  NAG d 902       6.751  -6.786  29.669  0.00  0.00     0.214 C 
ATOM     26  O7  NAG d 902       7.262  -5.829  29.024  0.00  0.00    -0.274 OA
ATOM     27  C8  NAG d 902       5.708  -7.714  29.077  0.00  0.00     0.117 C 
ATOM     28  H   NAG d 902       6.669  -7.892  31.469  0.00  0.00     0.163 HD
ENDBRANCH   6  24
BRANCH   4  29
ATOM     29  C6  NAG d 902      11.203  -5.016  34.548  0.00  0.00     0.198 C 
BRANCH  29  30
ATOM     30  O6  NAG d 902      12.125  -4.423  33.593  0.00  0.00    -0.398 OA
ATOM     31  H   NAG d 902      12.436  -5.105  32.978  0.00  0.00     0.209 HD
ENDBRANCH  29  30
ENDBRANCH   4  29
BRANCH   3  32
ATOM     32  O1  NAG d 902       6.604  -4.898  32.827  0.00  0.00    -0.369 OA
ATOM     33  H   NAG d 902       5.851  -5.242  33.333  0.00  0.00     0.212 HD
ENDBRANCH   3  32
TORSDOF 11
ENDMDL
MODEL 89
REMARK VINA RESULT:      -6.1      2.466      5.229
REMARK  11 active torsions:
REMARK  status: ('A' for Active; 'I' for Inactive)
REMARK    1  A    between atoms: C4_1  and  O4_9 
REMARK    2  A    between atoms: O6_3  and  C6_15 
REMARK    3  A    between atoms: C1_4  and  O1_21 
REMARK    4  A    between atoms: O2_6  and  C2_13 
REMARK       I    between atoms: C7_7  and  N2_10 
REMARK    5  A    between atoms: O3_8  and  C1_12 
REMARK    6  A    between atoms: O3_8  and  C3_16 
REMARK    7  A    between atoms: N2_10  and  C2_20 
REMARK    8  A    between atoms: C5_11  and  C6_15 
REMARK    9  A    between atoms: C5_18  and  C6_25 
REMARK   10  A    between atoms: O3_22  and  C3_24 
REMARK   11  A    between atoms: O6A_23  and  C6_25 
ROOT
ATOM      1  C4  NAG d 902       9.185  -7.378  30.265  0.00  0.00     0.180 C 
ATOM      2  O5  NAG d 902       8.591  -4.988  30.521  0.00  0.00    -0.349 OA
ATOM      3  C1  NAG d 902       7.155  -5.310  30.793  0.00  0.00     0.282 C 
ATOM      4  C5  NAG d 902       9.539  -6.075  30.959  0.00  0.00     0.179 C 
ATOM      5  C3  NAG d 902       7.705  -7.731  30.569  0.00  0.00     0.183 C 
ATOM      6  C2  NAG d 902       6.779  -6.613  30.076  0.00  0.00     0.171 C 
ENDROOT
BRANCH   5   7
ATOM      7  O3  NAG d 902       7.319  -8.962  29.911  0.00  0.00    -0.348 OA
BRANCH   7   8
ATOM      8  C1  GCD d 901       7.303 -10.180  30.627  0.00  0.00     0.298 C 
ATOM      9  C2  GCD d 901       5.913 -10.623  30.963  0.00  0.00     0.206 C 
ATOM     10  C3  GCD d 901       6.076 -11.979  31.736  0.00  0.00     0.177 C 
ATOM     11  C4  GCD d 901       7.172 -12.958  31.265  0.00  0.00     0.051 C 
ATOM     12  C5  GCD d 901       7.959 -12.617  30.224  0.00  0.00     0.144 C 
ATOM     13  O5  GCD d 901       7.897 -11.208  29.694  0.00  0.00    -0.311 OA
BRANCH   9  14
ATOM     14  O2  GCD d 901       5.215  -9.637  31.789  0.00  0.00    -0.388 OA
ATOM     15  H   GCD d 901       4.387 -10.021  32.120  0.00  0.00     0.210 HD
ENDBRANCH   9  14
BRANCH  10  16
ATOM     16  O3  GCD d 901       4.776 -12.450  32.041  0.00  0.00    -0.389 OA
ATOM     17  H   GCD d 901       4.696 -13.377  31.767  0.00  0.00     0.210 HD
ENDBRANCH  10  16
BRANCH  12  18
ATOM     18  C6  GCD d 901       9.058 -13.490  29.673  0.00  0.00     0.200 C 
ATOM     19  O6B GCD d 901      10.194 -13.192  30.193  0.00  0.00    -0.645 OA
BRANCH  18  20
ATOM     20  O6A GCD d 901       8.773 -14.179  28.621  0.00  0.00    -0.771 OA
ATOM     21  H   GCD d 901       7.935 -14.592  28.543  0.00  0.00     0.167 HD
ENDBRANCH  18  20
ENDBRANCH  12  18
ENDBRANCH   7   8
ENDBRANCH   5   7
BRANCH   1  22
ATOM     22  O4  NAG d 902      10.089  -8.416  30.711  0.00  0.00    -0.390 OA
ATOM     23  H   NAG d 902       9.718  -8.854  31.492  0.00  0.00     0.210 HD
ENDBRANCH   1  22
BRANCH   6  24
ATOM     24  N2  NAG d 902       5.340  -7.029  30.329  0.00  0.00    -0.349 N 
ATOM     25  C7  NAG d 902       4.530  -7.372  29.200  0.00  0.00     0.214 C 
ATOM     26  O7  NAG d 902       4.925  -7.336  28.002  0.00  0.00    -0.274 OA
ATOM     27  C8  NAG d 902       3.141  -7.833  29.596  0.00  0.00     0.117 C 
ATOM     28  H   NAG d 902       4.976  -7.062  31.244  0.00  0.00     0.163 HD
ENDBRANCH   6  24
BRANCH   4  29
ATOM     29  C6  NAG d 902      10.988  -5.687  30.661  0.00  0.00     0.198 C 
BRANCH  29  30
ATOM     30  O6  NAG d 902      11.531  -6.315  29.469  0.00  0.00    -0.398 OA
ATOM     31  H   NAG d 902      11.823  -5.629  28.848  0.00  0.00     0.209 HD
ENDBRANCH  29  30
ENDBRANCH   4  29
BRANCH   3  32
ATOM     32  O1  NAG d 902       6.298  -4.256  30.370  0.00  0.00    -0.369 OA
ATOM     33  H   NAG d 902       6.165  -4.314  29.410  0.00  0.00     0.212 HD
ENDBRANCH   3  32
TORSDOF 11
ENDMDL
MODEL 90
REMARK VINA RESULT:      -6.0      2.699      4.601
REMARK  11 active torsions:
REMARK  status: ('A' for Active; 'I' for Inactive)
REMARK    1  A    between atoms: C4_1  and  O4_9 
REMARK    2  A    between atoms: O6_3  and  C6_15 
REMARK    3  A    between atoms: C1_4  and  O1_21 
REMARK    4  A    between atoms: O2_6  and  C2_13 
REMARK       I    between atoms: C7_7  and  N2_10 
REMARK    5  A    between atoms: O3_8  and  C1_12 
REMARK    6  A    between atoms: O3_8  and  C3_16 
REMARK    7  A    between atoms: N2_10  and  C2_20 
REMARK    8  A    between atoms: C5_11  and  C6_15 
REMARK    9  A    between atoms: C5_18  and  C6_25 
REMARK   10  A    between atoms: O3_22  and  C3_24 
REMARK   11  A    between atoms: O6A_23  and  C6_25 
ROOT
ATOM      1  C4  NAG d 902       8.317  -8.723  30.798  0.00  0.00     0.180 C 
ATOM      2  O5  NAG d 902       9.374  -7.420  32.619  0.00  0.00    -0.349 OA
ATOM      3  C1  NAG d 902       8.057  -7.153  33.277  0.00  0.00     0.282 C 
ATOM      4  C5  NAG d 902       9.407  -8.720  31.855  0.00  0.00     0.179 C 
ATOM      5  C3  NAG d 902       6.945  -8.476  31.481  0.00  0.00     0.183 C 
ATOM      6  C2  NAG d 902       6.951  -7.129  32.215  0.00  0.00     0.171 C 
ENDROOT
BRANCH   5   7
ATOM      7  O3  NAG d 902       5.876  -8.455  30.504  0.00  0.00    -0.348 OA
BRANCH   7   8
ATOM      8  C1  GCD d 901       5.033  -9.578  30.345  0.00  0.00     0.298 C 
ATOM      9  C2  GCD d 901       3.633  -9.306  30.803  0.00  0.00     0.206 C 
ATOM     10  C3  GCD d 901       2.839 -10.635  30.548  0.00  0.00     0.177 C 
ATOM     11  C4  GCD d 901       3.156 -11.437  29.269  0.00  0.00     0.051 C 
ATOM     12  C5  GCD d 901       4.107 -10.987  28.425  0.00  0.00     0.144 C 
ATOM     13  O5  GCD d 901       4.983  -9.841  28.859  0.00  0.00    -0.311 OA
BRANCH   9  14
ATOM     14  O2  GCD d 901       3.589  -8.941  32.220  0.00  0.00    -0.388 OA
ATOM     15  H   GCD d 901       2.665  -8.898  32.514  0.00  0.00     0.210 HD
ENDBRANCH   9  14
BRANCH  10  16
ATOM     16  O3  GCD d 901       1.497 -10.406  30.938  0.00  0.00    -0.389 OA
ATOM     17  H   GCD d 901       1.174 -11.167  31.445  0.00  0.00     0.210 HD
ENDBRANCH  10  16
BRANCH  12  18
ATOM     18  C6  GCD d 901       4.500 -11.681  27.146  0.00  0.00     0.200 C 
ATOM     19  O6B GCD d 901       3.503 -11.773  26.340  0.00  0.00    -0.645 OA
BRANCH  18  20
ATOM     20  O6A GCD d 901       5.634 -12.296  27.148  0.00  0.00    -0.771 OA
ATOM     21  H   GCD d 901       6.167 -12.298  26.378  0.00  0.00     0.167 HD
ENDBRANCH  18  20
ENDBRANCH  12  18
ENDBRANCH   7   8
ENDBRANCH   5   7
BRANCH   1  22
ATOM     22  O4  NAG d 902       8.346  -9.984  30.089  0.00  0.00    -0.390 OA
ATOM     23  H   NAG d 902       8.420 -10.712  30.725  0.00  0.00     0.210 HD
ENDBRANCH   1  22
BRANCH   6  24
ATOM     24  N2  NAG d 902       5.572  -6.896  32.807  0.00  0.00    -0.349 N 
ATOM     25  C7  NAG d 902       5.067  -5.556  32.830  0.00  0.00     0.214 C 
ATOM     26  O7  NAG d 902       5.699  -4.549  32.406  0.00  0.00    -0.274 OA
ATOM     27  C8  NAG d 902       3.658  -5.472  33.384  0.00  0.00     0.117 C 
ATOM     28  H   NAG d 902       5.041  -7.644  33.165  0.00  0.00     0.163 HD
ENDBRANCH   6  24
BRANCH   4  29
ATOM     29  C6  NAG d 902      10.776  -8.939  31.212  0.00  0.00     0.198 C 
BRANCH  29  30
ATOM     30  O6  NAG d 902      11.224 -10.322  31.240  0.00  0.00    -0.398 OA
ATOM     31  H   NAG d 902      11.516 -10.584  30.353  0.00  0.00     0.209 HD
ENDBRANCH  29  30
ENDBRANCH   4  29
BRANCH   3  32
ATOM     32  O1  NAG d 902       8.074  -5.921  33.990  0.00  0.00    -0.369 OA
ATOM     33  H   NAG d 902       7.426  -5.957  34.712  0.00  0.00     0.212 HD
ENDBRANCH   3  32
TORSDOF 11
ENDMDL
MODEL 91
REMARK VINA RESULT:      -6.0      2.485      4.815
REMARK  11 active torsions:
REMARK  status: ('A' for Active; 'I' for Inactive)
REMARK    1  A    between atoms: C4_1  and  O4_9 
REMARK    2  A    between atoms: O6_3  and  C6_15 
REMARK    3  A    between atoms: C1_4  and  O1_21 
REMARK    4  A    between atoms: O2_6  and  C2_13 
REMARK       I    between atoms: C7_7  and  N2_10 
REMARK    5  A    between atoms: O3_8  and  C1_12 
REMARK    6  A    between atoms: O3_8  and  C3_16 
REMARK    7  A    between atoms: N2_10  and  C2_20 
REMARK    8  A    between atoms: C5_11  and  C6_15 
REMARK    9  A    between atoms: C5_18  and  C6_25 
REMARK   10  A    between atoms: O3_22  and  C3_24 
REMARK   11  A    between atoms: O6A_23  and  C6_25 
ROOT
ATOM      1  C4  NAG d 902       8.196 -10.169  31.468  0.00  0.00     0.180 C 
ATOM      2  O5  NAG d 902       8.481 -12.608  31.147  0.00  0.00    -0.349 OA
ATOM      3  C1  NAG d 902       7.011 -12.819  30.965  0.00  0.00     0.282 C 
ATOM      4  C5  NAG d 902       8.947 -11.245  30.703  0.00  0.00     0.179 C 
ATOM      5  C3  NAG d 902       6.672 -10.367  31.258  0.00  0.00     0.183 C 
ATOM      6  C2  NAG d 902       6.241 -11.752  31.754  0.00  0.00     0.171 C 
ENDROOT
BRANCH   5   7
ATOM      7  O3  NAG d 902       5.914  -9.369  31.985  0.00  0.00    -0.348 OA
BRANCH   7   8
ATOM      8  C1  GCD d 901       5.185  -8.379  31.290  0.00  0.00     0.298 C 
ATOM      9  C2  GCD d 901       4.081  -7.799  32.119  0.00  0.00     0.206 C 
ATOM     10  C3  GCD d 901       3.390  -6.722  31.211  0.00  0.00     0.177 C 
ATOM     11  C4  GCD d 901       4.284  -5.861  30.295  0.00  0.00     0.051 C 
ATOM     12  C5  GCD d 901       5.617  -6.067  30.290  0.00  0.00     0.144 C 
ATOM     13  O5  GCD d 901       6.171  -7.271  31.005  0.00  0.00    -0.311 OA
BRANCH   9  14
ATOM     14  O2  GCD d 901       3.119  -8.823  32.531  0.00  0.00    -0.388 OA
ATOM     15  H   GCD d 901       2.630  -8.512  33.309  0.00  0.00     0.210 HD
ENDBRANCH   9  14
BRANCH  10  16
ATOM     16  O3  GCD d 901       2.359  -6.125  31.975  0.00  0.00    -0.389 OA
ATOM     17  H   GCD d 901       2.182  -5.233  31.638  0.00  0.00     0.210 HD
ENDBRANCH  10  16
BRANCH  12  18
ATOM     18  C6  GCD d 901       6.590  -5.287  29.442  0.00  0.00     0.200 C 
ATOM     19  O6B GCD d 901       6.725  -5.819  28.280  0.00  0.00    -0.645 OA
BRANCH  18  20
ATOM     20  O6A GCD d 901       7.317  -4.415  30.054  0.00  0.00    -0.771 OA
ATOM     21  H   GCD d 901       6.985  -3.979  30.814  0.00  0.00     0.167 HD
ENDBRANCH  18  20
ENDBRANCH  12  18
ENDBRANCH   7   8
ENDBRANCH   5   7
BRANCH   1  22
ATOM     22  O4  NAG d 902       8.639  -8.868  31.016  0.00  0.00    -0.390 OA
ATOM     23  H   NAG d 902       8.555  -8.814  30.051  0.00  0.00     0.210 HD
ENDBRANCH   1  22
BRANCH   6  24
ATOM     24  N2  NAG d 902       4.735 -11.876  31.595  0.00  0.00    -0.349 N 
ATOM     25  C7  NAG d 902       4.004 -12.554  32.623  0.00  0.00     0.214 C 
ATOM     26  O7  NAG d 902       4.528 -13.072  33.647  0.00  0.00    -0.274 OA
ATOM     27  C8  NAG d 902       2.508 -12.548  32.376  0.00  0.00     0.117 C 
ATOM     28  H   NAG d 902       4.276 -11.501  30.809  0.00  0.00     0.163 HD
ENDBRANCH   6  24
BRANCH   4  29
ATOM     29  C6  NAG d 902      10.455 -11.092  30.906  0.00  0.00     0.198 C 
BRANCH  29  30
ATOM     30  O6  NAG d 902      11.055 -12.163  31.682  0.00  0.00    -0.398 OA
ATOM     31  H   NAG d 902      11.880 -11.849  32.083  0.00  0.00     0.209 HD
ENDBRANCH  29  30
ENDBRANCH   4  29
BRANCH   3  32
ATOM     32  O1  NAG d 902       6.617 -14.118  31.391  0.00  0.00    -0.369 OA
ATOM     33  H   NAG d 902       7.388 -14.707  31.387  0.00  0.00     0.212 HD
ENDBRANCH   3  32
TORSDOF 11
ENDMDL
MODEL 92
REMARK VINA RESULT:      -6.0      2.392      3.495
REMARK  11 active torsions:
REMARK  status: ('A' for Active; 'I' for Inactive)
REMARK    1  A    between atoms: C4_1  and  O4_9 
REMARK    2  A    between atoms: O6_3  and  C6_15 
REMARK    3  A    between atoms: C1_4  and  O1_21 
REMARK    4  A    between atoms: O2_6  and  C2_13 
REMARK       I    between atoms: C7_7  and  N2_10 
REMARK    5  A    between atoms: O3_8  and  C1_12 
REMARK    6  A    between atoms: O3_8  and  C3_16 
REMARK    7  A    between atoms: N2_10  and  C2_20 
REMARK    8  A    between atoms: C5_11  and  C6_15 
REMARK    9  A    between atoms: C5_18  and  C6_25 
REMARK   10  A    between atoms: O3_22  and  C3_24 
REMARK   11  A    between atoms: O6A_23  and  C6_25 
ROOT
ATOM      1  C4  NAG d 902       8.828  -7.453  30.476  0.00  0.00     0.180 C 
ATOM      2  O5  NAG d 902      11.022  -8.446  31.051  0.00  0.00    -0.349 OA
ATOM      3  C1  NAG d 902      10.535  -9.835  30.780  0.00  0.00     0.282 C 
ATOM      4  C5  NAG d 902      10.324  -7.397  30.223  0.00  0.00     0.179 C 
ATOM      5  C3  NAG d 902       8.313  -8.884  30.169  0.00  0.00     0.183 C 
ATOM      6  C2  NAG d 902       9.028  -9.909  31.057  0.00  0.00     0.171 C 
ENDROOT
BRANCH   5   7
ATOM      7  O3  NAG d 902       6.889  -8.987  30.413  0.00  0.00    -0.348 OA
BRANCH   7   8
ATOM      8  C1  GCD d 901       5.977  -8.976  29.334  0.00  0.00     0.298 C 
ATOM      9  C2  GCD d 901       5.277 -10.289  29.168  0.00  0.00     0.206 C 
ATOM     10  C3  GCD d 901       4.305 -10.101  27.951  0.00  0.00     0.177 C 
ATOM     11  C4  GCD d 901       3.582  -8.747  27.801  0.00  0.00     0.051 C 
ATOM     12  C5  GCD d 901       3.815  -7.770  28.702  0.00  0.00     0.144 C 
ATOM     13  O5  GCD d 901       4.933  -7.946  29.695  0.00  0.00    -0.311 OA
BRANCH   9  14
ATOM     14  O2  GCD d 901       6.222 -11.378  28.912  0.00  0.00    -0.388 OA
ATOM     15  H   GCD d 901       5.804 -12.041  28.341  0.00  0.00     0.210 HD
ENDBRANCH   9  14
BRANCH  10  16
ATOM     16  O3  GCD d 901       3.597 -11.315  27.784  0.00  0.00    -0.389 OA
ATOM     17  H   GCD d 901       2.828 -11.165  27.213  0.00  0.00     0.210 HD
ENDBRANCH  10  16
BRANCH  12  18
ATOM     18  C6  GCD d 901       3.165  -6.409  28.661  0.00  0.00     0.200 C 
ATOM     19  O6B GCD d 901       2.354  -6.311  27.669  0.00  0.00    -0.645 OA
BRANCH  18  20
ATOM     20  O6A GCD d 901       3.686  -5.499  29.411  0.00  0.00    -0.771 OA
ATOM     21  H   GCD d 901       3.193  -5.137  30.121  0.00  0.00     0.167 HD
ENDBRANCH  18  20
ENDBRANCH  12  18
ENDBRANCH   7   8
ENDBRANCH   5   7
BRANCH   1  22
ATOM     22  O4  NAG d 902       8.170  -6.456  29.660  0.00  0.00    -0.390 OA
ATOM     23  H   NAG d 902       8.691  -5.639  29.664  0.00  0.00     0.210 HD
ENDBRANCH   1  22
BRANCH   6  24
ATOM     24  N2  NAG d 902       8.446 -11.284  30.773  0.00  0.00    -0.349 N 
ATOM     25  C7  NAG d 902       7.919 -12.032  31.875  0.00  0.00     0.214 C 
ATOM     26  O7  NAG d 902       7.921 -11.634  33.072  0.00  0.00    -0.274 OA
ATOM     27  C8  NAG d 902       7.310 -13.352  31.446  0.00  0.00     0.117 C 
ATOM     28  H   NAG d 902       8.431 -11.649  29.859  0.00  0.00     0.163 HD
ENDBRANCH   6  24
BRANCH   4  29
ATOM     29  C6  NAG d 902      10.868  -6.003  30.538  0.00  0.00     0.198 C 
BRANCH  29  30
ATOM     30  O6  NAG d 902      10.653  -5.034  29.477  0.00  0.00    -0.398 OA
ATOM     31  H   NAG d 902      10.706  -5.480  28.617  0.00  0.00     0.209 HD
ENDBRANCH  29  30
ENDBRANCH   4  29
BRANCH   3  32
ATOM     32  O1  NAG d 902      11.224 -10.791  31.577  0.00  0.00    -0.369 OA
ATOM     33  H   NAG d 902      12.134 -10.886  31.253  0.00  0.00     0.212 HD
ENDBRANCH   3  32
TORSDOF 11
ENDMDL
MODEL 93
REMARK VINA RESULT:      -6.0      3.466      6.276
REMARK  11 active torsions:
REMARK  status: ('A' for Active; 'I' for Inactive)
REMARK    1  A    between atoms: C4_1  and  O4_9 
REMARK    2  A    between atoms: O6_3  and  C6_15 
REMARK    3  A    between atoms: C1_4  and  O1_21 
REMARK    4  A    between atoms: O2_6  and  C2_13 
REMARK       I    between atoms: C7_7  and  N2_10 
REMARK    5  A    between atoms: O3_8  and  C1_12 
REMARK    6  A    between atoms: O3_8  and  C3_16 
REMARK    7  A    between atoms: N2_10  and  C2_20 
REMARK    8  A    between atoms: C5_11  and  C6_15 
REMARK    9  A    between atoms: C5_18  and  C6_25 
REMARK   10  A    between atoms: O3_22  and  C3_24 
REMARK   11  A    between atoms: O6A_23  and  C6_25 
ROOT
ATOM      1  C4  NAG d 902       4.981 -11.460  30.497  0.00  0.00     0.180 C 
ATOM      2  O5  NAG d 902       6.068 -12.318  28.445  0.00  0.00    -0.349 OA
ATOM      3  C1  NAG d 902       5.026 -11.706  27.562  0.00  0.00     0.282 C 
ATOM      4  C5  NAG d 902       6.286 -11.555  29.727  0.00  0.00     0.179 C 
ATOM      5  C3  NAG d 902       3.905 -10.799  29.595  0.00  0.00     0.183 C 
ATOM      6  C2  NAG d 902       3.696 -11.627  28.322  0.00  0.00     0.171 C 
ENDROOT
BRANCH   5   7
ATOM      7  O3  NAG d 902       2.636 -10.703  30.287  0.00  0.00    -0.348 OA
BRANCH   7   8
ATOM      8  C1  GCD d 901       1.983  -9.455  30.411  0.00  0.00     0.298 C 
ATOM      9  C2  GCD d 901       2.184  -8.842  31.762  0.00  0.00     0.206 C 
ATOM     10  C3  GCD d 901       1.413  -7.475  31.726  0.00  0.00     0.177 C 
ATOM     11  C4  GCD d 901       1.455  -6.652  30.422  0.00  0.00     0.051 C 
ATOM     12  C5  GCD d 901       2.132  -7.132  29.358  0.00  0.00     0.144 C 
ATOM     13  O5  GCD d 901       2.639  -8.550  29.397  0.00  0.00    -0.311 OA
BRANCH   9  14
ATOM     14  O2  GCD d 901       1.666  -9.699  32.830  0.00  0.00    -0.388 OA
ATOM     15  H   GCD d 901       2.196  -9.571  33.633  0.00  0.00     0.210 HD
ENDBRANCH   9  14
BRANCH  10  16
ATOM     16  O3  GCD d 901       1.610  -6.846  32.978  0.00  0.00    -0.389 OA
ATOM     17  H   GCD d 901       0.918  -6.181  33.118  0.00  0.00     0.210 HD
ENDBRANCH  10  16
BRANCH  12  18
ATOM     18  C6  GCD d 901       2.245  -6.418  28.035  0.00  0.00     0.200 C 
ATOM     19  O6B GCD d 901       2.735  -7.188  27.131  0.00  0.00    -0.645 OA
BRANCH  18  20
ATOM     20  O6A GCD d 901       2.108  -5.136  28.059  0.00  0.00    -0.771 OA
ATOM     21  H   GCD d 901       1.811  -4.711  28.839  0.00  0.00     0.167 HD
ENDBRANCH  18  20
ENDBRANCH  12  18
ENDBRANCH   7   8
ENDBRANCH   5   7
BRANCH   1  22
ATOM     22  O4  NAG d 902       5.201 -10.707  31.714  0.00  0.00    -0.390 OA
ATOM     23  H   NAG d 902       4.477 -10.075  31.838  0.00  0.00     0.210 HD
ENDBRANCH   1  22
BRANCH   6  24
ATOM     24  N2  NAG d 902       2.589 -10.985  27.504  0.00  0.00    -0.349 N 
ATOM     25  C7  NAG d 902       1.746 -11.841  26.724  0.00  0.00     0.214 C 
ATOM     26  O7  NAG d 902       1.871 -13.094  26.655  0.00  0.00    -0.274 OA
ATOM     27  C8  NAG d 902       0.643 -11.082  26.012  0.00  0.00     0.117 C 
ATOM     28  H   NAG d 902       2.455 -10.010  27.511  0.00  0.00     0.163 HD
ENDBRANCH   6  24
BRANCH   4  29
ATOM     29  C6  NAG d 902       7.364 -12.222  30.582  0.00  0.00     0.198 C 
BRANCH  29  30
ATOM     30  O6  NAG d 902       6.852 -13.241  31.482  0.00  0.00    -0.398 OA
ATOM     31  H   NAG d 902       6.303 -13.867  30.984  0.00  0.00     0.209 HD
ENDBRANCH  29  30
ENDBRANCH   4  29
BRANCH   3  32
ATOM     32  O1  NAG d 902       4.858 -12.454  26.363  0.00  0.00    -0.369 OA
ATOM     33  H   NAG d 902       4.321 -13.241  26.546  0.00  0.00     0.212 HD
ENDBRANCH   3  32
TORSDOF 11
ENDMDL
MODEL 94
REMARK VINA RESULT:      -6.0      3.454      6.012
REMARK  11 active torsions:
REMARK  status: ('A' for Active; 'I' for Inactive)
REMARK    1  A    between atoms: C4_1  and  O4_9 
REMARK    2  A    between atoms: O6_3  and  C6_15 
REMARK    3  A    between atoms: C1_4  and  O1_21 
REMARK    4  A    between atoms: O2_6  and  C2_13 
REMARK       I    between atoms: C7_7  and  N2_10 
REMARK    5  A    between atoms: O3_8  and  C1_12 
REMARK    6  A    between atoms: O3_8  and  C3_16 
REMARK    7  A    between atoms: N2_10  and  C2_20 
REMARK    8  A    between atoms: C5_11  and  C6_15 
REMARK    9  A    between atoms: C5_18  and  C6_25 
REMARK   10  A    between atoms: O3_22  and  C3_24 
REMARK   11  A    between atoms: O6A_23  and  C6_25 
ROOT
ATOM      1  C4  NAG d 902       4.531 -10.397  30.093  0.00  0.00     0.180 C 
ATOM      2  O5  NAG d 902       5.269 -12.141  31.688  0.00  0.00    -0.349 OA
ATOM      3  C1  NAG d 902       3.866 -12.419  32.130  0.00  0.00     0.282 C 
ATOM      4  C5  NAG d 902       5.360 -11.658  30.263  0.00  0.00     0.179 C 
ATOM      5  C3  NAG d 902       3.069 -10.689  30.522  0.00  0.00     0.183 C 
ATOM      6  C2  NAG d 902       3.024 -11.145  31.985  0.00  0.00     0.171 C 
ENDROOT
BRANCH   5   7
ATOM      7  O3  NAG d 902       2.243  -9.506  30.391  0.00  0.00    -0.348 OA
BRANCH   7   8
ATOM      8  C1  GCD d 901       1.283  -9.416  29.358  0.00  0.00     0.298 C 
ATOM      9  C2  GCD d 901       0.015  -8.765  29.817  0.00  0.00     0.206 C 
ATOM     10  C3  GCD d 901      -0.925  -8.735  28.561  0.00  0.00     0.177 C 
ATOM     11  C4  GCD d 901      -0.290  -8.447  27.185  0.00  0.00     0.051 C 
ATOM     12  C5  GCD d 901       1.041  -8.246  27.100  0.00  0.00     0.144 C 
ATOM     13  O5  GCD d 901       1.899  -8.526  28.306  0.00  0.00    -0.311 OA
BRANCH   9  14
ATOM     14  O2  GCD d 901      -0.610  -9.507  30.913  0.00  0.00    -0.388 OA
ATOM     15  H   GCD d 901      -1.192 -10.192  30.549  0.00  0.00     0.210 HD
ENDBRANCH   9  14
BRANCH  10  16
ATOM     16  O3  GCD d 901      -2.125  -8.091  28.947  0.00  0.00    -0.389 OA
ATOM     17  H   GCD d 901      -2.365  -7.430  28.280  0.00  0.00     0.210 HD
ENDBRANCH  10  16
BRANCH  12  18
ATOM     18  C6  GCD d 901       1.772  -7.952  25.814  0.00  0.00     0.200 C 
ATOM     19  O6B GCD d 901       2.992  -8.354  25.870  0.00  0.00    -0.645 OA
BRANCH  18  20
ATOM     20  O6A GCD d 901       1.194  -7.143  24.994  0.00  0.00    -0.771 OA
ATOM     21  H   GCD d 901       1.305  -6.218  25.091  0.00  0.00     0.167 HD
ENDBRANCH  18  20
ENDBRANCH  12  18
ENDBRANCH   7   8
ENDBRANCH   5   7
BRANCH   1  22
ATOM     22  O4  NAG d 902       4.611  -9.957  28.717  0.00  0.00    -0.390 OA
ATOM     23  H   NAG d 902       3.740 -10.040  28.299  0.00  0.00     0.210 HD
ENDBRANCH   1  22
BRANCH   6  24
ATOM     24  N2  NAG d 902       1.573 -11.352  32.384  0.00  0.00    -0.349 N 
ATOM     25  C7  NAG d 902       1.187 -11.012  33.720  0.00  0.00     0.214 C 
ATOM     26  O7  NAG d 902       1.976 -10.567  34.598  0.00  0.00    -0.274 OA
ATOM     27  C8  NAG d 902      -0.297 -11.201  33.965  0.00  0.00     0.117 C 
ATOM     28  H   NAG d 902       0.917 -11.709  31.741  0.00  0.00     0.163 HD
ENDBRANCH   6  24
BRANCH   4  29
ATOM     29  C6  NAG d 902       6.815 -11.398  29.869  0.00  0.00     0.198 C 
BRANCH  29  30
ATOM     30  O6  NAG d 902       7.222 -10.010  30.005  0.00  0.00    -0.398 OA
ATOM     31  H   NAG d 902       6.666  -9.574  30.671  0.00  0.00     0.209 HD
ENDBRANCH  29  30
ENDBRANCH   4  29
BRANCH   3  32
ATOM     32  O1  NAG d 902       3.828 -12.878  33.476  0.00  0.00    -0.369 OA
ATOM     33  H   NAG d 902       3.259 -12.293  34.001  0.00  0.00     0.212 HD
ENDBRANCH   3  32
TORSDOF 11
ENDMDL
MODEL 95
REMARK VINA RESULT:      -6.0      2.752      6.678
REMARK  11 active torsions:
REMARK  status: ('A' for Active; 'I' for Inactive)
REMARK    1  A    between atoms: C4_1  and  O4_9 
REMARK    2  A    between atoms: O6_3  and  C6_15 
REMARK    3  A    between atoms: C1_4  and  O1_21 
REMARK    4  A    between atoms: O2_6  and  C2_13 
REMARK       I    between atoms: C7_7  and  N2_10 
REMARK    5  A    between atoms: O3_8  and  C1_12 
REMARK    6  A    between atoms: O3_8  and  C3_16 
REMARK    7  A    between atoms: N2_10  and  C2_20 
REMARK    8  A    between atoms: C5_11  and  C6_15 
REMARK    9  A    between atoms: C5_18  and  C6_25 
REMARK   10  A    between atoms: O3_22  and  C3_24 
REMARK   11  A    between atoms: O6A_23  and  C6_25 
ROOT
ATOM      1  C4  NAG d 902       6.805 -10.720  30.730  0.00  0.00     0.180 C 
ATOM      2  O5  NAG d 902       4.893 -11.617  29.438  0.00  0.00    -0.349 OA
ATOM      3  C1  NAG d 902       4.100 -10.362  29.621  0.00  0.00     0.282 C 
ATOM      4  C5  NAG d 902       6.383 -11.386  29.432  0.00  0.00     0.179 C 
ATOM      5  C3  NAG d 902       6.006  -9.402  30.909  0.00  0.00     0.183 C 
ATOM      6  C2  NAG d 902       4.501  -9.693  30.942  0.00  0.00     0.171 C 
ENDROOT
BRANCH   5   7
ATOM      7  O3  NAG d 902       6.367  -8.741  32.146  0.00  0.00    -0.348 OA
BRANCH   7   8
ATOM      8  C1  GCD d 901       7.244  -7.633  32.135  0.00  0.00     0.298 C 
ATOM      9  C2  GCD d 901       6.759  -6.516  33.005  0.00  0.00     0.206 C 
ATOM     10  C3  GCD d 901       7.842  -5.386  32.887  0.00  0.00     0.177 C 
ATOM     11  C4  GCD d 901       9.325  -5.805  32.818  0.00  0.00     0.051 C 
ATOM     12  C5  GCD d 901       9.643  -7.116  32.845  0.00  0.00     0.144 C 
ATOM     13  O5  GCD d 901       8.542  -8.136  32.718  0.00  0.00    -0.311 OA
BRANCH   9  14
ATOM     14  O2  GCD d 901       5.450  -6.023  32.576  0.00  0.00    -0.388 OA
ATOM     15  H   GCD d 901       4.866  -5.943  33.346  0.00  0.00     0.210 HD
ENDBRANCH   9  14
BRANCH  10  16
ATOM     16  O3  GCD d 901       7.436  -4.322  33.728  0.00  0.00    -0.389 OA
ATOM     17  H   GCD d 901       8.209  -3.791  33.973  0.00  0.00     0.210 HD
ENDBRANCH  10  16
BRANCH  12  18
ATOM     18  C6  GCD d 901      11.054  -7.646  32.787  0.00  0.00     0.200 C 
ATOM     19  O6B GCD d 901      11.911  -6.706  32.970  0.00  0.00    -0.645 OA
BRANCH  18  20
ATOM     20  O6A GCD d 901      11.204  -8.836  32.316  0.00  0.00    -0.771 OA
ATOM     21  H   GCD d 901      12.016  -9.289  32.435  0.00  0.00     0.167 HD
ENDBRANCH  18  20
ENDBRANCH  12  18
ENDBRANCH   7   8
ENDBRANCH   5   7
BRANCH   1  22
ATOM     22  O4  NAG d 902       8.233 -10.485  30.701  0.00  0.00    -0.390 OA
ATOM     23  H   NAG d 902       8.430  -9.638  31.131  0.00  0.00     0.210 HD
ENDBRANCH   1  22
BRANCH   6  24
ATOM     24  N2  NAG d 902       3.762  -8.389  31.189  0.00  0.00    -0.349 N 
ATOM     25  C7  NAG d 902       2.813  -8.345  32.261  0.00  0.00     0.214 C 
ATOM     26  O7  NAG d 902       2.535  -9.324  33.007  0.00  0.00    -0.274 OA
ATOM     27  C8  NAG d 902       2.199  -6.971  32.441  0.00  0.00     0.117 C 
ATOM     28  H   NAG d 902       3.930  -7.597  30.628  0.00  0.00     0.163 HD
ENDBRANCH   6  24
BRANCH   4  29
ATOM     29  C6  NAG d 902       7.138 -12.700  29.235  0.00  0.00     0.198 C 
BRANCH  29  30
ATOM     30  O6  NAG d 902       7.247 -13.113  27.846  0.00  0.00    -0.398 OA
ATOM     31  H   NAG d 902       6.617 -13.830  27.672  0.00  0.00     0.209 HD
ENDBRANCH  29  30
ENDBRANCH   4  29
BRANCH   3  32
ATOM     32  O1  NAG d 902       2.702 -10.626  29.614  0.00  0.00    -0.369 OA
ATOM     33  H   NAG d 902       2.252 -10.000  30.203  0.00  0.00     0.212 HD
ENDBRANCH   3  32
TORSDOF 11
ENDMDL
MODEL 96
REMARK VINA RESULT:      -6.0      3.564      6.562
REMARK  11 active torsions:
REMARK  status: ('A' for Active; 'I' for Inactive)
REMARK    1  A    between atoms: C4_1  and  O4_9 
REMARK    2  A    between atoms: O6_3  and  C6_15 
REMARK    3  A    between atoms: C1_4  and  O1_21 
REMARK    4  A    between atoms: O2_6  and  C2_13 
REMARK       I    between atoms: C7_7  and  N2_10 
REMARK    5  A    between atoms: O3_8  and  C1_12 
REMARK    6  A    between atoms: O3_8  and  C3_16 
REMARK    7  A    between atoms: N2_10  and  C2_20 
REMARK    8  A    between atoms: C5_11  and  C6_15 
REMARK    9  A    between atoms: C5_18  and  C6_25 
REMARK   10  A    between atoms: O3_22  and  C3_24 
REMARK   11  A    between atoms: O6A_23  and  C6_25 
ROOT
ATOM      1  C4  NAG d 902       5.390 -10.090  31.160  0.00  0.00     0.180 C 
ATOM      2  O5  NAG d 902       4.380 -11.677  29.550  0.00  0.00    -0.349 OA
ATOM      3  C1  NAG d 902       3.142 -10.847  29.413  0.00  0.00     0.282 C 
ATOM      4  C5  NAG d 902       5.609 -10.865  29.873  0.00  0.00     0.179 C 
ATOM      5  C3  NAG d 902       4.124  -9.206  31.012  0.00  0.00     0.183 C 
ATOM      6  C2  NAG d 902       2.897 -10.077  30.718  0.00  0.00     0.171 C 
ENDROOT
BRANCH   5   7
ATOM      7  O3  NAG d 902       3.867  -8.459  32.226  0.00  0.00    -0.348 OA
BRANCH   7   8
ATOM      8  C1  GCD d 901       4.297  -7.117  32.344  0.00  0.00     0.298 C 
ATOM      9  C2  GCD d 901       3.348  -6.287  33.151  0.00  0.00     0.206 C 
ATOM     10  C3  GCD d 901       3.973  -4.848  33.191  0.00  0.00     0.177 C 
ATOM     11  C4  GCD d 901       5.505  -4.725  33.320  0.00  0.00     0.051 C 
ATOM     12  C5  GCD d 901       6.256  -5.845  33.378  0.00  0.00     0.144 C 
ATOM     13  O5  GCD d 901       5.606  -7.173  33.094  0.00  0.00    -0.311 OA
BRANCH   9  14
ATOM     14  O2  GCD d 901       2.012  -6.253  32.552  0.00  0.00    -0.388 OA
ATOM     15  H   GCD d 901       2.058  -6.582  31.640  0.00  0.00     0.210 HD
ENDBRANCH   9  14
BRANCH  10  16
ATOM     16  O3  GCD d 901       3.120  -4.038  33.978  0.00  0.00    -0.389 OA
ATOM     17  H   GCD d 901       3.284  -4.214  34.918  0.00  0.00     0.210 HD
ENDBRANCH  10  16
BRANCH  12  18
ATOM     18  C6  GCD d 901       7.758  -5.850  33.507  0.00  0.00     0.200 C 
ATOM     19  O6B GCD d 901       8.276  -4.808  32.963  0.00  0.00    -0.645 OA
BRANCH  18  20
ATOM     20  O6A GCD d 901       8.301  -6.961  33.875  0.00  0.00    -0.771 OA
ATOM     21  H   GCD d 901       8.167  -7.738  33.369  0.00  0.00     0.167 HD
ENDBRANCH  18  20
ENDBRANCH  12  18
ENDBRANCH   7   8
ENDBRANCH   5   7
BRANCH   1  22
ATOM     22  O4  NAG d 902       6.569  -9.300  31.446  0.00  0.00    -0.390 OA
ATOM     23  H   NAG d 902       7.268  -9.523  30.813  0.00  0.00     0.210 HD
ENDBRANCH   1  22
BRANCH   6  24
ATOM     24  N2  NAG d 902       1.672  -9.182  30.650  0.00  0.00    -0.349 N 
ATOM     25  C7  NAG d 902       0.615  -9.416  31.587  0.00  0.00     0.214 C 
ATOM     26  O7  NAG d 902       0.622 -10.331  32.456  0.00  0.00    -0.274 OA
ATOM     27  C8  NAG d 902      -0.514  -8.413  31.456  0.00  0.00     0.117 C 
ATOM     28  H   NAG d 902       1.608  -8.461  29.982  0.00  0.00     0.163 HD
ENDBRANCH   6  24
BRANCH   4  29
ATOM     29  C6  NAG d 902       6.839 -11.765  29.993  0.00  0.00     0.198 C 
BRANCH  29  30
ATOM     30  O6  NAG d 902       8.100 -11.061  29.827  0.00  0.00    -0.398 OA
ATOM     31  H   NAG d 902       8.339 -11.044  28.887  0.00  0.00     0.209 HD
ENDBRANCH  29  30
ENDBRANCH   4  29
BRANCH   3  32
ATOM     32  O1  NAG d 902       2.010 -11.651  29.103  0.00  0.00    -0.369 OA
ATOM     33  H   NAG d 902       1.616 -11.985  29.924  0.00  0.00     0.212 HD
ENDBRANCH   3  32
TORSDOF 11
ENDMDL
MODEL 97
REMARK VINA RESULT:      -5.9      2.406      4.340
REMARK  11 active torsions:
REMARK  status: ('A' for Active; 'I' for Inactive)
REMARK    1  A    between atoms: C4_1  and  O4_9 
REMARK    2  A    between atoms: O6_3  and  C6_15 
REMARK    3  A    between atoms: C1_4  and  O1_21 
REMARK    4  A    between atoms: O2_6  and  C2_13 
REMARK       I    between atoms: C7_7  and  N2_10 
REMARK    5  A    between atoms: O3_8  and  C1_12 
REMARK    6  A    between atoms: O3_8  and  C3_16 
REMARK    7  A    between atoms: N2_10  and  C2_20 
REMARK    8  A    between atoms: C5_11  and  C6_15 
REMARK    9  A    between atoms: C5_18  and  C6_25 
REMARK   10  A    between atoms: O3_22  and  C3_24 
REMARK   11  A    between atoms: O6A_23  and  C6_25 
ROOT
ATOM      1  C4  NAG d 902       7.729  -9.606  30.106  0.00  0.00     0.180 C 
ATOM      2  O5  NAG d 902       8.856  -8.226  31.827  0.00  0.00    -0.349 OA
ATOM      3  C1  NAG d 902       7.672  -7.321  31.965  0.00  0.00     0.282 C 
ATOM      4  C5  NAG d 902       8.487  -9.631  31.422  0.00  0.00     0.179 C 
ATOM      5  C3  NAG d 902       6.484  -8.691  30.255  0.00  0.00     0.183 C 
ATOM      6  C2  NAG d 902       6.911  -7.268  30.634  0.00  0.00     0.171 C 
ENDROOT
BRANCH   5   7
ATOM      7  O3  NAG d 902       5.738  -8.625  29.015  0.00  0.00    -0.348 OA
BRANCH   7   8
ATOM      8  C1  GCD d 901       4.547  -9.368  28.858  0.00  0.00     0.298 C 
ATOM      9  C2  GCD d 901       4.522 -10.135  27.572  0.00  0.00     0.206 C 
ATOM     10  C3  GCD d 901       3.153 -10.904  27.564  0.00  0.00     0.177 C 
ATOM     11  C4  GCD d 901       2.642 -11.492  28.895  0.00  0.00     0.051 C 
ATOM     12  C5  GCD d 901       3.369 -11.317  30.017  0.00  0.00     0.144 C 
ATOM     13  O5  GCD d 901       4.540 -10.371  29.987  0.00  0.00    -0.311 OA
BRANCH   9  14
ATOM     14  O2  GCD d 901       4.625  -9.250  26.411  0.00  0.00    -0.388 OA
ATOM     15  H   GCD d 901       5.545  -9.225  26.104  0.00  0.00     0.210 HD
ENDBRANCH   9  14
BRANCH  10  16
ATOM     16  O3  GCD d 901       3.108 -11.671  26.375  0.00  0.00    -0.389 OA
ATOM     17  H   GCD d 901       2.392 -12.322  26.438  0.00  0.00     0.210 HD
ENDBRANCH  10  16
BRANCH  12  18
ATOM     18  C6  GCD d 901       2.974 -11.847  31.372  0.00  0.00     0.200 C 
ATOM     19  O6B GCD d 901       3.862 -11.569  32.258  0.00  0.00    -0.645 OA
BRANCH  18  20
ATOM     20  O6A GCD d 901       2.000 -12.692  31.399  0.00  0.00    -0.771 OA
ATOM     21  H   GCD d 901       1.914 -13.330  30.718  0.00  0.00     0.167 HD
ENDBRANCH  18  20
ENDBRANCH  12  18
ENDBRANCH   7   8
ENDBRANCH   5   7
BRANCH   1  22
ATOM     22  O4  NAG d 902       7.364 -10.958  29.742  0.00  0.00    -0.390 OA
ATOM     23  H   NAG d 902       7.178 -10.997  28.791  0.00  0.00     0.210 HD
ENDBRANCH   1  22
BRANCH   6  24
ATOM     24  N2  NAG d 902       5.672  -6.393  30.700  0.00  0.00    -0.349 N 
ATOM     25  C7  NAG d 902       5.596  -5.267  29.819  0.00  0.00     0.214 C 
ATOM     26  O7  NAG d 902       6.498  -4.940  29.000  0.00  0.00    -0.274 OA
ATOM     27  C8  NAG d 902       4.282  -4.519  29.939  0.00  0.00     0.117 C 
ATOM     28  H   NAG d 902       4.942  -6.594  31.330  0.00  0.00     0.163 HD
ENDBRANCH   6  24
BRANCH   4  29
ATOM     29  C6  NAG d 902       9.734 -10.508  31.303  0.00  0.00     0.198 C 
BRANCH  29  30
ATOM     30  O6  NAG d 902       9.506 -11.903  31.643  0.00  0.00    -0.398 OA
ATOM     31  H   NAG d 902       8.936 -12.310  30.972  0.00  0.00     0.209 HD
ENDBRANCH  29  30
ENDBRANCH   4  29
BRANCH   3  32
ATOM     32  O1  NAG d 902       8.065  -6.010  32.354  0.00  0.00    -0.369 OA
ATOM     33  H   NAG d 902       8.112  -5.441  31.569  0.00  0.00     0.212 HD
ENDBRANCH   3  32
TORSDOF 11
ENDMDL
