REMARK  11 active torsions:
REMARK  status: ('A' for Active; 'I' for Inactive)
REMARK    1  A    between atoms: C4_1  and  O4_9 
REMARK    2  A    between atoms: O6_3  and  C6_15 
REMARK    3  A    between atoms: C1_4  and  O1_21 
REMARK    4  A    between atoms: O2_6  and  C2_13 
REMARK       I    between atoms: C7_7  and  N2_10 
REMARK    5  A    between atoms: O3_8  and  C1_12 
REMARK    6  A    between atoms: O3_8  and  C3_16 
REMARK    7  A    between atoms: N2_10  and  C2_20 
REMARK    8  A    between atoms: C5_11  and  C6_15 
REMARK    9  A    between atoms: C5_18  and  C6_25 
REMARK   10  A    between atoms: O3_22  and  C3_24 
REMARK   11  A    between atoms: O6A_23  and  C6_25 
ROOT
ATOM      1  C4  NAG d 902       8.036  -8.843  30.765  0.00  0.00     0.180 C 
ATOM      2  O5  NAG d 902      10.249  -9.952  30.833  0.00  0.00    -0.349 OA
ATOM      3  C1  NAG d 902       9.637 -11.316  30.768  0.00  0.00     0.282 C 
ATOM      4  C5  NAG d 902       9.422  -8.894  30.147  0.00  0.00     0.179 C 
ATOM      5  C3  NAG d 902       7.386 -10.249  30.673  0.00  0.00     0.183 C 
ATOM      6  C2  NAG d 902       8.245 -11.282  31.412  0.00  0.00     0.171 C 
ENDROOT
BRANCH   5   7
ATOM      7  O3  NAG d 902       6.065 -10.250  31.267  0.00  0.00    -0.348 OA
BRANCH   7   8
ATOM      8  C1  GCD d 901       4.939 -10.633  30.504  0.00  0.00     0.298 C 
ATOM      9  C2  GCD d 901       3.669 -10.567  31.294  0.00  0.00     0.206 C 
ATOM     10  C3  GCD d 901       2.532 -11.007  30.306  0.00  0.00     0.177 C 
ATOM     11  C4  GCD d 901       2.625 -10.543  28.838  0.00  0.00     0.051 C 
ATOM     12  C5  GCD d 901       3.677  -9.794  28.447  0.00  0.00     0.144 C 
ATOM     13  O5  GCD d 901       4.837  -9.618  29.391  0.00  0.00    -0.311 OA
BRANCH   9  14
ATOM     14  O2  GCD d 901       3.710 -11.450  32.461  0.00  0.00    -0.388 OA
ATOM     15  H   GCD d 901       4.418 -11.163  33.059  0.00  0.00     0.210 HD
ENDBRANCH   9  14
BRANCH  10  16
ATOM     16  O3  GCD d 901       1.306 -10.923  31.009  0.00  0.00    -0.389 OA
ATOM     17  H   GCD d 901       1.428 -11.255  31.912  0.00  0.00     0.210 HD
ENDBRANCH  10  16
BRANCH  12  18
ATOM     18  C6  GCD d 901       3.874  -9.280  27.043  0.00  0.00     0.200 C 
ATOM     19  O6B GCD d 901       4.416  -8.115  27.046  0.00  0.00    -0.645 OA
BRANCH  18  20
ATOM     20  O6A GCD d 901       3.258  -9.915  26.105  0.00  0.00    -0.771 OA
ATOM     21  H   GCD d 901       2.915 -10.772  26.266  0.00  0.00     0.167 HD
ENDBRANCH  18  20
ENDBRANCH  12  18
ENDBRANCH   7   8
ENDBRANCH   5   7
BRANCH   1  22
ATOM     22  O4  NAG d 902       7.248  -7.839  30.083  0.00  0.00    -0.390 OA
ATOM     23  H   NAG d 902       7.183  -8.063  29.142  0.00  0.00     0.210 HD
ENDBRANCH   1  22
BRANCH   6  24
ATOM     24  N2  NAG d 902       7.539 -12.626  31.357  0.00  0.00    -0.349 N 
ATOM     25  C7  NAG d 902       6.968 -13.136  32.567  0.00  0.00     0.214 C 
ATOM     26  O7  NAG d 902       7.026 -12.552  33.684  0.00  0.00    -0.274 OA
ATOM     27  C8  NAG d 902       6.237 -14.448  32.360  0.00  0.00     0.117 C 
ATOM     28  H   NAG d 902       7.476 -13.131  30.514  0.00  0.00     0.163 HD
ENDBRANCH   6  24
BRANCH   4  29
ATOM     29  C6  NAG d 902      10.100  -7.527  30.241  0.00  0.00     0.198 C 
BRANCH  29  30
ATOM     30  O6  NAG d 902      10.291  -7.058  31.603  0.00  0.00    -0.398 OA
ATOM     31  H   NAG d 902      10.724  -6.190  31.588  0.00  0.00     0.209 HD
ENDBRANCH  29  30
ENDBRANCH   4  29
BRANCH   3  32
ATOM     32  O1  NAG d 902      10.452 -12.282  31.421  0.00  0.00    -0.369 OA
ATOM     33  H   NAG d 902      10.544 -12.047  32.358  0.00  0.00     0.212 HD
ENDBRANCH   3  32
TORSDOF 11
